20
Properties=species:S:1:pos:R:3 pbc="F F F"
C        0.00000000       0.00000000       0.00000000
H       -0.65922016       0.56810504       0.65634185
C        1.42907143       0.54137993      -0.25915363
H        2.00266838       0.83188140       0.62101376
C        1.24502552       1.59222150      -1.35585630
H        0.74907517       2.48885536      -0.98413062
H        2.18666410       1.88272297      -1.82171595
C       -0.41457438      -0.09436303      -1.49054408
H       -1.46893477      -0.27377039      -1.70086896
C        0.53242797      -1.23787999      -1.85993993
H        0.61582971      -1.49164259      -2.91670275
C        1.84008932      -0.77303886      -1.16969204
H        2.71050739      -0.63115776      -1.81027079
C        1.79502773      -2.01516461      -0.31225938
H        2.63688421      -2.59937358       0.05932724
C        0.41621709      -2.13018012       0.18427917
H        0.14517155      -2.85143614       0.92672336
O       -0.65273559      -0.12138744       1.08263576
C       -0.79478848       1.72079301       0.09328723
H       -0.50779706       0.54031730       0.45508140
