15
Properties=species:S:1:pos:R:3 pbc="F F F"
C        0.00000000       0.00000000       0.00000000
H       -0.46332881       0.46804190       0.86854041
H        0.65733719       0.67902291      -0.50173205
C       -0.90104336      -0.99137133      -0.73905456
H       -1.96301079      -1.03878462      -0.49806383
H       -0.74022537      -1.09555423      -1.81207967
C        0.36738658      -1.43850601       0.27536434
N        1.39942324      -1.95949984       0.89145237
H        2.09953070      -1.29210591       1.24547815
H        1.53699613      -2.94844842       1.04361653
N       -0.12515140      -2.08434248      -0.04371005
O        2.95524216      -2.90485406       1.92428398
C       -0.17885435      -0.66844213      -0.17775309
H        0.19345680       0.76261061       0.19261217
H        0.21581146       0.75264800       0.20747600
