18
Properties=species:S:1:pos:R:3 pbc="F F F"
C        0.00000000       0.00000000       0.00000000
H        0.11240770       0.99184787       0.48549116
O        0.92260593      -0.63780612      -0.39761877
O       -1.27707839      -0.42721424      -0.09516883
C       -2.30717421       0.40948084       0.38121557
H       -1.90642738       1.29519212       0.87418270
C       -3.48749137       0.68390155      -0.51969641
H       -3.83202028       1.71013045      -0.64718533
O       -3.68638396      -0.14812613      -1.58977604
H       -4.63278341      -0.35749936      -1.62706363
C       -3.63232589       0.02692544       0.85445899
H       -4.09380007       0.56231135       1.68421972
O       -4.02095985      -1.28526103       0.79098642
C       -5.43191433      -1.44669437       0.95845336
H       -5.64697886      -2.52947068       0.84251398
H       -5.98089361      -0.90148491       0.16254652
O       -5.84972286      -0.97062361       2.24051833
H       -6.83959961      -0.96200830       2.25351262
