21
Properties=species:S:1:pos:R:3 pbc="F F F"
C        0.00000000       0.00000000       0.00000000
H        0.84308147      -0.17940737      -0.66717768
H       -0.64987189      -0.87452042       0.03130254
C       -0.72928369       1.35995555      -0.14547829
H       -1.41739213       1.62713480      -0.92008871
C        0.29708731       2.33836770       0.37353033
H        0.24824974       3.38766456       0.08251438
O        1.56903374       1.75517297       0.54712272
C       -0.72928369       1.72701478       1.27795613
H       -1.46050191       2.27222419       1.91054273
O       -0.23071674       0.58360100       1.89125371
O        0.61256516       0.37881407       1.33642268
H        2.27217579       1.33497274       0.68099916
H        1.35987604       2.14429665       0.35531524
C        3.18095636       1.30476260       0.31274492
H        2.10500884       2.04143190       0.27866778
O        2.84174705       2.88104582      -0.32562050
O        4.40331078       0.78205138      -0.21405751
C        4.33220148       0.60114634       0.26738626
C        4.54571724       1.11397099      -1.34987020
C        4.49518728       0.86456811      -0.60950834
