19
Properties=species:S:1:pos:R:3 pbc="F F F"
C        0.00000000       0.00000000       0.00000000
H       -0.09562638      -0.69171494      -0.83695006
C        0.53777033       1.41161132      -0.24301091
H       -0.03642511       1.99582028      -0.96210670
H        1.61768866       1.44058716      -0.49803224
C       -1.29712641       0.36551115       0.80545765
H       -1.71506667      -0.52505553       1.31957459
O       -2.29423523       1.02707517       0.09820545
C       -3.38675380       1.37915242       0.91707230
H       -4.10621881       1.89793301       0.28356129
H       -3.85986948       0.49344110       1.34107256
H       -3.08978748       2.04113078       1.73051870
C        0.81946725      -0.38703525       1.25744772
H        0.41841829      -1.23838258       1.80741763
H        1.88833737      -0.51008588       1.08287764
O        0.33195448       1.98032975       1.05278897
C        0.19494541       0.84805262       1.91538692
H        0.26708522       1.13322377       2.94415927
O       -0.84032214       1.34767020       1.73904824
