6
Properties=species:S:1:pos:R:3 pbc="F F F"
C        0.00000000       0.00000000       0.00000000
H        0.39817902      -0.39111966      -0.91289550
C       -0.49304593      -0.24057490      -1.07848430
H        1.97058606      -0.71122336      -0.78187299
H        2.76270556      -0.87226939      -0.72980970
H        2.76112080      -0.88606083      -0.75765258
