11
Properties=species:S:1:pos:R:3 pbc="F F F"
C        0.00000000       0.00000000       0.00000000
H        0.67956585      -0.85134727      -0.03869629
H        0.53111351       0.92037338      -0.12542176
C       -1.16692722      -0.17272244       0.97434384
H       -1.14253950      -0.98468810       1.67077494
C       -1.46052492      -0.23666516      -0.46461743
H       -1.73620129      -1.09513938      -1.04074574
N       -2.30142951       0.83878076       1.14945436
H       -2.96888781       0.46228239       1.83767509
C       -2.53607130       0.88070977      -0.22054528
O       -3.27295375       1.55309367      -0.86939287
