22
Properties=species:S:1:pos:R:3 pbc="F F F"
C        0.00000000       0.00000000       0.00000000
H        0.36059424       0.74863887       0.70541537
C       -0.17111687       0.36085495      -1.49766493
H       -0.80971557       1.20022702      -1.77288413
C        1.28962660       0.37416950      -1.95258129
H        1.83915401       1.25307012      -1.55552626
H        1.43215919       0.32675618      -3.03218126
C       -1.28240442      -0.75150484       0.36273605
H       -2.13308096      -0.08952653       0.52470285
H       -1.15689588      -1.36738586       1.25326252
O        1.75951576      -0.85586202      -1.39479566
C        0.96884435      -1.09123135      -0.22674656
O        1.76840639      -1.50194263       0.91102087
C        1.66828084      -2.88718915       0.85476065
H        2.27857971      -3.38920712       1.60550189
N        0.94122028      -3.49163985       0.00686842
C        0.21643943      -2.37932444      -0.56674790
H       -0.80787128      -2.37001300      -0.25755534
H        0.20690998      -2.42673779      -1.65567422
C       -0.77440840      -1.10815716      -1.86500645
H       -1.33434772      -1.15470052      -2.77561116
H       -1.38488197      -1.37533641      -1.02784657
