15
Properties=species:S:1:pos:R:3 pbc="F F F"
C        0.00000000       0.00000000       0.00000000
H        0.50583965       0.96531260      -0.01992991
C       -0.67651021      -0.57388574      -1.29533267
H       -1.57356811      -0.10584384      -1.70070064
C        0.48676109      -0.85194117      -2.24947262
H        0.88317877       0.03377014      -2.74592781
C        1.38863766      -1.51750517      -1.17889309
H        1.82102203      -2.48281765      -1.44217002
H        2.18685460      -0.85552686      -0.84313440
C        0.71622896      -1.37269199       0.07232271
H        0.18988481      -1.57117152      -3.04109859
O       -0.87843585      -0.13668033       1.12007475
C       -0.99192357      -1.58966005       0.92806256
H       -1.10142112      -3.40736437       0.60178447
H       -1.08993542      -3.40736437       0.59815228
