17
Properties=species:S:1:pos:R:3 pbc="F F F"
C        0.00000000       0.00000000       0.00000000
H       -0.47021654       0.72061348       0.66911280
C        0.33556491      -1.40112710       0.51491421
H        0.96206790      -1.37267339       1.40642059
H       -0.52329677      -2.04793406       0.69406968
O        1.32022512       0.45885971      -0.38594234
C        1.64056659      -0.64233470      -1.24013805
H        2.69161320      -0.61388099      -1.52752364
C        0.63094413      -0.46961224      -2.37667990
H        0.84528774       0.33010238      -3.05447984
C       -0.24273258      -1.61547017      -2.82811832
H        0.01205325      -2.60970879      -2.52567267
H       -0.63720405      -1.55276442      -3.77751803
C       -0.90299070      -0.44100034      -1.77513373
H        0.08004266      -0.52158946      -1.47840106
O        1.71263707      -1.40247536      -2.02939796
O        1.67937779      -1.49768627      -2.30777001
