17
Properties=species:S:1:pos:R:3 pbc="F F F"
C        0.00000000       0.00000000       0.00000000
H       -0.66295201      -0.32688832      -0.80108553
C        0.35325930       1.53062534       0.24594975
H       -0.40627226       2.23689651       0.58119905
C        1.24401367       1.86087370      -0.95337927
H        0.66668236       2.05896544      -1.85645592
H        1.93344033       2.68801641      -0.78418911
C       -0.23341109      -0.35619876       1.46953702
H       -1.16158640       0.04223153       1.87922382
H       -0.11780838      -1.40549564       1.74103546
C        1.27594686       0.81674665       1.26649988
H        2.00285387       1.30185008       1.91794467
O        1.90489650       0.11801982       0.00908160
O        2.19414020       0.86874384      -1.40853918
O        1.22076154       1.23763180       0.00605989
H        2.74568963       0.74879891      -0.29813430
H       -0.25981331       1.93663824       0.42484969
