23
Properties=species:S:1:pos:R:3 pbc="F F F"
C        0.00000000       0.00000000       0.00000000
H       -0.98838478      -0.43349874       0.15255721
C        1.08740413      -0.76132840      -0.80026817
H        0.90453672      -0.86742294      -1.88994825
O        1.37521553      -2.01003528      -0.21205568
C        2.53275681      -2.62407184      -0.78472954
H        2.35210752      -2.82579827      -1.86119199
H        2.64023376      -3.60709667      -0.28053677
C        0.98199773       0.28169015       1.16568804
H        0.69321680       1.13646352       1.81226933
H        1.23663902      -0.59721041       1.79401183
N        1.96826530       0.62392032       0.13077128
C        3.13097429       1.36892068       0.28945518
H        2.98062277       2.26555467       0.89073807
H        3.96619892       0.78471172       0.67571825
O        3.72045183      -1.83673775      -0.66479957
H        4.64806509      -1.19825554      -0.57113189
C        0.90385842       0.79988605      -0.36920235
O        3.49002957       1.86838734      -1.00147891
C        2.83607244      -2.94568634       0.63817650
N        2.84980083      -4.08237123       0.46422800
O        2.57904410      -4.29714537      -1.14917207
N        2.69170260      -3.95327210      -1.17309773
