21
Properties=species:S:1:pos:R:3 pbc="F F F"
C        0.00000000       0.00000000       0.00000000
H       -0.42827013      -0.60013586       0.80282056
H       -0.52519691      -0.16361660      -0.96410429
O        1.35602498      -0.42885342      -0.14892593
O       -0.10250764       1.31884074       0.35643995
C        2.02987361       0.41532061      -1.02379537
H        1.54272342       0.46273392      -1.99772358
C        2.72367787       1.65555406      -0.57596219
H        2.67491412       2.55218792      -1.19383669
O        2.79438043       1.90453184       0.76936662
C        1.80158305       2.87636828       1.24976802
H        1.21073866       3.21497512       0.42445129
H        2.29700756       3.58375955       1.88147330
C        1.58892107       2.12203336      -0.01745403
N        3.43592072       0.40305033      -1.12857473
H        3.88423204      -0.05535018      -0.32248205
N        3.06310368       2.59205246       1.86020112
O        3.91162324       3.54113245       2.06843376
H        4.47675562       4.10061169       2.30614877
H        3.24914026       2.97964954       1.82729495
C        4.08964348       3.86266136       2.09315252
