6
Properties=species:S:1:pos:R:3 pbc="F F F"
C        0.00000000       0.00000000       0.00000000
H        0.38534653       0.21273981      -0.97526872
C        1.06466484      -0.22353478      -0.57395101
H       -0.72943008       1.00353897      -1.82615495
H       -1.29028070       1.40139461      -2.25424075
H       -1.28270292       1.40139461      -2.26399064
