17
Properties=species:S:1:pos:R:3 pbc="F F F"
C        0.00000000       0.00000000       0.00000000
H        0.51071078       0.64680690      -0.71338248
H        0.72147393      -0.46804190       0.66970980
C       -1.22418869       0.64110059       0.70203251
H       -1.15966809       1.44303632       1.43744779
C       -2.03359509       0.76237547      -0.61426967
H       -3.10417366       0.92304403      -0.48720211
H       -1.61934137       1.42435384      -1.37471557
C       -1.61110425      -0.74899673      -0.66066986
O       -1.76576960      -1.63669527      -1.69264293
C       -3.08722401      -1.94104183      -2.07894492
H       -3.02094674      -2.63275671      -2.91872883
H       -3.63747644      -1.02795577      -2.38812995
O       -2.23777676      -1.01251340       0.62008721
H       -3.63903975      -2.40908384      -1.26375437
O       -1.70228326      -0.54919058       1.33411694
O       -0.98645550       0.36061215      -0.86726284
