13
Properties=species:S:1:pos:R:3 pbc="F F F"
C        0.00000000       0.00000000       0.00000000
H        0.49502259       0.70627117      -0.66650802
H       -1.05634499      -0.14448443      -0.30880231
O        0.02278539       0.59146702       1.30174708
O        0.67525226      -1.19040382      -0.06222077
C       -0.42584443      -0.27793604       2.26079249
N       -0.83478057       0.09693587       3.38094473
H       -0.81703788       1.12341368       3.46417880
C        0.07765418      -2.17256284       0.78815448
H        0.74577409      -3.00828910       0.79692501
C       -0.48792225      -1.62791967       2.05448198
H       -0.98201537      -2.69010687       3.40789485
H       -0.91030484      -2.69010687       3.43196058
