22
Properties=species:S:1:pos:R:3 pbc="F F F"
C        0.00000000       0.00000000       0.00000000
H        0.56776416      -0.60013586      -0.71104151
C        0.61023134       1.19360220       0.77809328
H        0.89715588       2.09023619       0.22871083
C        1.67469478       0.65222228       1.76618385
H        2.64867473       0.56693864       1.28432381
H        1.77857935       1.30205417       2.60988164
C       -1.30999863       0.68982589      -0.45884788
H       -2.08183289      -0.03078759      -0.72919506
H       -1.15828466       1.39609706      -1.27509737
C        0.51903498       1.51219761       2.57078934
H       -0.19431776       0.72220629       2.88565564
N       -0.06229585       2.89721012       2.18830729
H       -0.98231590       2.79685044       1.69233298
C        0.02604362       2.78441429       3.06162810
H        0.11578747       2.70382524       4.08454132
O       -0.46561888       3.35419440       1.62492847
N       -0.19525984       3.13164902       3.44983721
C       -0.54325283       3.77845192       3.73741579
C        0.35593665       2.41963005       1.44477928
N        0.69539726       1.76298940       3.47726679
C        0.32426670       2.54120040       1.45713210
