13
Properties=species:S:1:pos:R:3 pbc="F F F"
C        0.00000000       0.00000000       0.00000000
H        0.47440979      -0.78896600       0.58358145
H        0.51057178       0.12530847      -0.97760606
O        0.14765145       1.20390403       0.75743806
O       -1.29363239      -0.33709523      -0.18809733
C       -0.55228430       2.25870037       0.18333620
H       -0.14178872       2.55453205      -0.80462950
O       -1.49432886       2.74262810       0.68059397
C       -2.03315282       0.53137159      -1.05052018
H       -1.42129529       0.83444822      -1.87433696
C       -0.98051202       0.94837081      -2.27810144
C        0.02399409       1.22871017      -3.22703528
C        0.02124333       1.23268652      -3.25817728
