14
Properties=species:S:1:pos:R:3 pbc="F F F"
C        0.00000000       0.00000000       0.00000000
H        0.74694258      -0.61588109       0.50086582
H       -0.35398620       0.78896600       0.66357046
C       -1.11474454      -0.76132840      -0.76172268
H       -1.92171371      -1.32943344      -0.29895201
C       -0.12344563      -1.40242898      -1.76611996
H       -0.56708413      -1.76530814      -2.69326758
H        0.57310778      -2.15064788      -1.33359134
N        0.44333667      -0.05624795      -1.93180788
C        1.08579898       0.57127112      -3.01880383
O        1.61831212       0.00489610      -3.91977453
O        1.06431913       1.93441033      -2.88356853
N       -0.82390040       0.56830812      -1.39876223
H        0.59448051       2.14810061      -2.03876829
