31
Properties=species:S:1:pos:R:3 pbc="F F F"
C        0.00000000       0.00000000       0.00000000
H        0.37996089       0.34493598      -0.96163827
C        0.13865665       0.80785561       1.31553829
H       -0.30292505       1.78010011       1.38369644
C        0.63951504       0.02579743       2.29534674
H        0.71449137       0.22388925       3.36456966
O        0.51309836      -1.25991464       0.37073362
O       -1.47617733      -0.19394752      -0.05816062
C       -2.09714317      -0.34634969      -1.24714077
H       -3.13398886      -0.61852288      -1.04972780
N       -1.66022706      -0.22687386      -2.41218519
C       -0.26192307       0.16490324      -2.64055896
H        0.42613888      -0.25875783      -1.87951946
H       -0.19050494       1.27110744      -2.58301830
O        1.01076126      -1.13679504       1.87743127
O        0.10362816      -0.26395017      -3.95484781
H        0.35010737      -0.61521524      -4.97854710
C        1.45493639       0.20123866      -4.29903316
H        1.38746107       1.18426335      -4.81011915
C        1.93746638      -0.78382003      -5.30745888
N        2.33366537      -1.48561144      -6.09955406
C        2.33470678       0.31312454      -3.17725611
C        2.99745464       0.42113069      -2.26841116
H        3.60394812       0.51766717      -1.46657205
H        1.78543234       0.18193643      -3.86514211
H       -0.49730778      -1.28759909      -5.47441673
H       -0.49730778      -1.28759909      -5.47441673
H       -0.49730778      -1.28759909      -5.47441673
H       -0.49730778      -1.28759909      -5.47441673
O        2.34693599      -0.26360247      -3.11972952
O        2.30624413      -0.43986192      -3.17352772
