5
Properties=species:S:1:pos:R:3 pbc="F F F"
C        0.00000000       0.00000000       0.00000000
H       -0.61197424      -0.74832618       0.45868820
C       -1.00630951      -0.59432739      -0.31339303
C       -1.70493841      -0.34249875      -1.65107667
C       -1.74146795      -0.32933125      -1.72102094
