26
Properties=species:S:1:pos:R:3 pbc="F F F"
C        0.00000000       0.00000000       0.00000000
H        0.49887943      -0.96531260       0.08596665
C        0.25083899       1.05084157       1.08337879
H        1.30019760       1.34134305       1.13392365
H       -0.09483215       0.71795529       2.08427715
C       -1.53747952       0.01348860      -0.19614266
H       -2.13131714      -0.45455331       0.58896434
C       -1.74855995      -0.54577583      -1.60453403
H       -1.61919522      -1.64811969      -1.61874151
H       -2.75124693      -0.30618382      -2.01601100
O       -0.73062646       0.09064418      -2.38150191
C        0.07964635       0.77124602      -1.41966128
H        1.02027535       1.02035236      -1.86470318
O       -0.50299644       2.18311882       0.64226794
C       -1.54323137       1.63030863      -0.09557384
H       -1.29875445       1.86990070       0.96032673
O       -2.46628499       2.49971175      -0.61423445
C       -1.95946503       3.24392152      -1.77620840
H       -0.92342019       2.92951488      -2.02086902
H       -2.01665044       3.27237535      -0.68808174
C       -3.01946926       3.39858150      -0.92217702
N       -1.41549814       3.29691291      -0.46848416
H       -0.55288756       3.33736658      -0.12327963
C        0.13402605       3.39736390       0.08953196
N       -4.05397034       2.66124296      -1.17034650
C       -0.00446606       3.25749540       0.06773651
