16
Properties=species:S:1:pos:R:3 pbc="F F F"
C        0.00000000       0.00000000       0.00000000
H       -0.78818077       0.73473746       0.16441165
C       -0.29898214      -1.31929064      -0.75668979
H       -1.06758618      -1.96609759      -0.33362028
C       -0.44256669      -0.98904228      -2.24370599
H       -1.39734602      -0.47781295      -2.48689318
H       -0.36912528      -1.89100528      -2.88648796
O        0.66749614      -0.12057549      -2.48541665
C        0.80713898      -0.60848892       1.14854932
H        0.23925799      -1.19269788       1.87264216
H        1.48120975       0.08322603       1.65378022
C        1.22007239       0.11479378      -1.18766510
H        1.94359469       0.90201515      -1.22886443
C        1.35149837      -1.25234759      -0.51346225
O        1.92005491      -1.57446074       0.59878105
O        0.76312172      -2.20055437      -1.19962227
