6
Properties=species:S:1:pos:R:3 pbc="F F F"
C        0.00000000       0.00000000       0.00000000
H       -0.45805115      -0.48691526       1.83182919
C       -0.94559515      -1.39901030       3.24352312
C       -0.73409271      -0.99627757       3.24789715
H        0.09723437       0.58896017       3.24425960
H        0.09723437       0.58896017       3.24425960
