5
Properties=species:S:1:pos:R:3 pbc="F F F"
C        0.00000000       0.00000000       0.00000000
H        0.62911803       0.62911803       0.62911803
H       -0.62911803      -0.62911803       0.62911803
H       -0.09519573      -0.01052981      -1.20620298
H        0.05385982      -0.00670079       0.76808476
