5
Properties=species:S:1:pos:R:3 pbc="F F F"
C        0.00000000       0.00000000       0.00000000
H        0.62911803       0.62911803       0.62911803
H       -0.62911803      -0.62911803       0.62911803
H        0.05247602       0.15750103      -1.19855702
H       -0.01341426      -0.07359713       0.76635730
