5
Properties=species:S:1:pos:R:3 pbc="F F F"
C        0.00000000       0.00000000       0.00000000
H        0.62911803       0.62911803       0.62911803
H       -0.62911803      -0.62911803       0.62911803
H       -0.07393688      -0.07366405      -1.20548999
H        0.02692193       0.03349382       0.76879996
