5
Properties=species:S:1:pos:R:3 pbc="F F F"
C        0.00000000       0.00000000       0.00000000
H        0.62911803       0.62911803       0.62911803
H       -0.62911803      -0.62911803       0.62911803
H        0.03173228      -0.05263313      -1.20843768
H       -0.02692204       0.03349382       0.76879996
