5
Properties=species:S:1:pos:R:3 pbc="F F F"
C        0.00000000       0.00000000       0.00000000
H        0.62911803       0.62911803       0.62911803
H       -0.62911803      -0.62911803       0.62911803
H       -0.07373514       0.11565260      -1.20220077
H        0.04028695      -0.06024626       0.76658159
