5
Properties=species:S:1:pos:R:3 pbc="F F F"
C        0.00000000       0.00000000       0.00000000
H        0.62911803       0.62911803       0.62911803
H       -0.62911803      -0.62911803       0.62911803
H       -0.15808028       0.07366405      -1.19736516
H        0.08056059      -0.04687714       0.76433796
