5
Properties=species:S:1:pos:R:3 pbc="F F F"
C        0.00000000       0.00000000       0.00000000
H        0.62911803       0.62911803       0.62911803
H       -0.62911803      -0.62911803       0.62911803
H       -0.05292423       0.01052981      -1.20879567
H        0.02694641      -0.00670079       0.76949912
