14
Properties=species:S:1:pos:R:3 pbc="F F F"
C        0.00000000       0.00000000       0.00000000
H       -0.59755880      -0.57852900       0.73506933
O       -0.72849000       0.23207739      -1.18471134
H       -1.20445669       1.03187394      -0.99423611
C        0.33233497       1.37888873       0.57368714
O       -0.27003404       2.36210942       0.20690739
H        1.12841415       1.42543209       1.28712320
C        1.27080333      -0.79743171      -0.30009857
H        1.99535525      -0.20250332      -0.89439142
O        1.88068867      -1.29689837       0.89299452
H        2.56763124      -1.83689320       0.63879943
C        0.82756460      -1.96138096      -1.08090556
N        0.48886681      -2.90856218      -1.78874052
H        0.19882238      -3.69332886      -2.42318106
