12
Properties=species:S:1:pos:R:3 pbc="F F F"
C        0.00000000       0.00000000       0.00000000
H        0.32641929      -0.42366105      -0.97265661
H        0.60418010      -0.42602178       0.71719676
C        1.37083793      -1.29828906       1.23128271
H        2.01737189      -1.99245811       1.68141913
C        0.95281303      -0.91023767      -0.01433754
C       -0.86014163       0.65308201      -0.70550615
C       -0.50372660       0.61940742       0.53382152
C       -0.49020615       0.50971109       0.50093132
C       -1.38764811      -0.12150359      -1.91490769
C       -0.06917298       0.05818492      -0.09049670
C        2.69632626      -2.82383871       0.61938107
