16
Properties=species:S:1:pos:R:3 pbc="F F F"
C        0.00000000       0.00000000       0.00000000
O       -0.10966328      -0.79325104      -0.95980501
C        0.45109212       1.24419665      -0.13186808
C        0.90367860       1.91622055      -1.40609229
H        0.08538479       2.57083225      -1.82891369
O        1.93675447       1.69268572      -2.03512764
C       -0.25909364      -0.35619876       1.46522713
O       -0.64648902      -1.35804904       1.97739887
C        0.60601342       1.98840642       1.12632465
H        0.08390367       2.94476247       1.09659421
C        0.16728276       0.88403463       2.17242026
H       -0.33630824       1.15121388       3.07790947
C        1.88488412       1.87026119       1.92044640
N        2.92734814       1.85990548       2.49425888
N        1.65948486       0.55378628       2.24429584
H        2.21197176       1.16493380       1.50041676
