6
Properties=species:S:1:pos:R:3 pbc="F F F"
C        0.00000000       0.00000000       0.00000000
H       -0.27013281      -0.28715521       1.08030975
O       -0.42430899      -0.48521772      -0.92812967
O        0.41085190       0.28431576       1.33987439
O       -0.66576254       0.47662982      -0.74945539
O       -1.11994541      -0.47607073       0.75098419
