16
Properties=species:S:1:pos:R:3 pbc="F F F"
C        0.00000000       0.00000000       0.00000000
O       -0.48327726      -0.67721748       0.90593511
C       -0.22952034       0.06742259      -1.53142810
H       -0.65340519      -0.82321501      -1.94613957
C        1.03579032       0.81892741      -1.94991016
H        1.69989347       0.58365238      -2.78160214
C        1.63500261       1.40289259      -0.66896248
H        2.10412598       2.31506872      -0.76254368
O        0.90295166       0.96080017       0.28989637
C        1.05556202       0.29937947      -0.42522883
N       -0.83914542       1.37947357      -1.96383703
H       -1.78240085       1.62667680      -2.13489103
C        0.36257601       2.09330750      -1.77835107
N       -0.06461707       3.17277527      -1.63290417
C        2.07335043       3.70031524      -0.87319273
N        2.08294868       4.83021450      -0.88479090
