8
Properties=species:S:1:pos:R:3 pbc="F F F"
C        0.00000000       0.00000000       0.00000000
H       -0.90330714      -0.45945397       0.34327471
C        0.97226048       0.88810748       0.55755979
H        0.98808944       1.33760703       1.46188223
C        0.67825741      -0.18613756      -1.24507749
C        0.39211714      -0.90969902      -2.34829140
O       -0.13784981      -1.61584592      -3.14615750
C        0.92295229       0.30318749      -0.56864446
