22
Properties=species:S:1:pos:R:3 pbc="F F F"
C        0.00000000       0.00000000       0.00000000
H        0.51318854       0.73218942      -0.69096696
O       -1.20067239      -0.31212524      -0.15317476
O        0.71928054      -0.49236280       0.95095372
C        2.07945776       0.10021794       1.08830047
H        2.61793947      -0.59395105       1.66333652
C        1.36795807       0.88895679       0.39219850
C        0.57494980       1.68454528      -0.28180110
C        0.67126584       2.84603882       0.17003396
C        0.79465765       4.03635693       0.70296574
C        0.87028790       5.18963432       1.17912769
C        0.95923096       6.56309891       1.63539708
H        0.19787395       7.17430162       1.30727220
C        1.83755386       5.72348499       2.00485110
C        2.82543373       4.89145756       2.46171212
H        3.56249642       5.27915573       3.19555688
C       -1.07125616       7.94057369       0.67939192
H       -1.83393002       7.20567131       0.52725291
O       -0.98833346       7.99433804       0.79604805
O        2.97593188       3.66253519       2.09949851
C        0.91869396       6.75518560       1.67177176
C       -0.83714068       7.72822285       0.77246886
