18
Properties=species:S:1:pos:R:3 pbc="F F F"
C        0.00000000       0.00000000       0.00000000
H        0.92459267       0.17611550       0.50893146
C       -1.34072781      -0.20488924       0.30424944
N       -0.15546556      -0.03576295      -1.36067998
H        0.51909029       0.13047691      -2.09378171
N       -1.48647439      -0.33579254      -1.62619102
C       -1.70072651      -0.60294384      -3.05574489
H       -2.73914957      -0.79740095      -3.22534251
C       -0.57108891      -1.27496767      -3.79898143
H       -0.83231997      -2.07468224      -4.46012735
C       -0.81711400       0.14480972      -3.96085167
H        0.37224126      -1.40253401      -3.19008541
N       -0.96024770       0.86607385      -5.04500532
H        1.27133012       0.28537461      -3.00275970
H       -1.81951237      -0.21472287       1.32775700
O        0.32235056       1.29961717      -5.25448179
O       -2.02479076      -0.38914216      -0.72560859
H        0.32855940       2.01843810      -5.96395874
