16
Properties=species:S:1:pos:R:3 pbc="F F F"
C        0.00000000       0.00000000       0.00000000
H        0.99987060       0.02793165       0.37997100
C       -1.09586442       0.11374099      -0.44971460
C       -2.49193788       0.17855367      -0.96631509
N       -3.32277656       1.10775232      -0.07907522
H       -3.14158034       0.85864592       0.94562638
C       -4.29212046       0.14229923      -0.66930437
H       -5.32662439       0.15161073      -0.39614898
C       -3.21230650      -1.09497464      -0.51899827
H       -3.00327992      -1.46870148       0.46158093
O       -3.22109723      -2.11271095      -1.52350485
C       -1.12273753       0.42379856      -1.50039721
H       -0.66561031       0.81149650      -0.56614655
C       -3.68064046       0.10235959      -2.07122993
O       -3.88413167      -0.18479562      -3.16605067
C       -0.24624252       0.01293898      -0.53093898
