15
Properties=species:S:1:pos:R:3 pbc="F F F"
C        0.00000000       0.00000000       0.00000000
H       -0.77371877       0.72125602       0.16139492
C        0.23599525      -1.22417247      -0.56798470
O        1.26665545       0.20194119       0.48135462
N       -0.46636361      -2.15433478      -1.20860052
O        1.56213880      -1.40510345      -0.19287705
C        2.18710947      -0.41188037       0.47451943
H        0.12429601      -2.90920568      -1.52701962
C        3.11523819      -1.55773830       0.14942756
H        3.92136502      -1.50945497      -0.61210203
C        1.34402764      -0.13745967      -0.74777514
O        3.14439249      -2.46267486       0.98197711
C        0.26941836      -0.16904593      -1.30303741
H        0.73583215       0.45821893      -0.66343093
O        3.47746277      -0.86797607       0.53667247
