15
Properties=species:S:1:pos:R:3 pbc="F F F"
C        0.00000000       0.00000000       0.00000000
H        0.49655816       0.94760042      -0.01956422
C       -0.69488156      -0.78733408      -0.97064030
H       -0.96208841      -0.55205905      -2.00085640
N       -1.44193685      -0.25000155       0.17569304
H       -1.87854052       0.54428768      -0.22252971
N        0.06058329      -2.02756739      -0.63718605
C        0.56524324      -1.31205094       0.48899934
O        1.35071671      -1.61854327       1.27104342
C       -0.69477999      -3.27876568      -0.47961998
H       -1.70642340      -3.09277463      -0.01176924
C        0.67702961      -3.39691091      -1.09952164
H        1.60049796      -3.71131754      -0.56994259
O       -0.27500182      -4.26063156      -0.84924752
O        0.57459795      -2.26507688      -1.70989704
