18
Properties=species:S:1:pos:R:3 pbc="F F F"
C        0.00000000       0.00000000       0.00000000
N       -0.22732833      -0.98611188       0.98183674
H       -0.67831594       0.85134727       0.05652151
H        1.02185035       0.30307665      -0.09415787
H        0.56894517      -1.36261022       1.51578152
C       -1.36680853      -1.51140082       1.17819166
O       -1.58501840      -2.59719372       2.05085206
C       -2.66668725      -3.31123400       1.60696292
H       -2.87923622      -4.20786810       2.18917394
N       -3.38269448      -2.94235992       0.67735839
C       -2.69123602      -1.24061477       0.55156249
N       -3.08793259      -0.17022300      -0.24152744
H       -3.79546618      -0.37103349      -0.93374914
C       -3.55015135       0.63776761       0.84401536
O       -4.02247715       1.65616274       0.71486819
H       -3.33389544       0.26126924       1.77802920
N       -2.51869392      -1.05636191       1.77580881
C       -1.11667871       0.50808996      -0.65343052
