20
Properties=species:S:1:pos:R:3 pbc="F F F"
C        0.00000000       0.00000000       0.00000000
H       -1.08345830      -0.04741332       0.10940451
H        0.48750806      -0.52044070       0.87657094
O        0.18727994       1.26311243      -0.18322693
N        1.51273024       1.71564305      -0.47183716
C        1.87966633       2.12429762      -1.50491917
C        2.20666409       2.60979319      -2.76565886
C        2.49131680       3.03241873      -3.86313748
C        2.89533067       3.53188539      -5.14071465
H        3.49645591       2.85286236      -5.70858383
C        3.14986157       5.07932663      -5.21512175
H        3.68332577       5.48506737      -4.33031130
H        3.73542023       5.36449766      -6.06406069
C        1.94277072       4.42464495      -5.81636810
N        1.18631101       5.12643623      -6.27697277
C        1.73694038       5.52617407      -5.37029600
H        2.21214676       5.71474981      -4.74203014
H        2.95435143       6.17876053      -4.24378872
H        3.74637437       4.77085495      -3.43118691
H        4.37047720       5.90723705      -4.40577793
