10
Properties=species:S:1:pos:R:3 pbc="F F F"
C        0.00000000       0.00000000       0.00000000
C       -0.62701148      -0.46275407      -1.15100539
H       -0.29835746      -0.25841877       1.03744960
O        0.94856268       0.76389670      -0.17201622
C       -1.68045139      -1.39492369      -1.24807417
C       -2.57907414      -2.15009880      -1.44374478
H       -3.40218234      -2.84181380      -1.62297249
C       -0.00821024       0.07164031      -2.44422054
H        0.50006914      -0.75972426      -3.01639557
O        0.05402925       1.17869663      -2.74926448
