16
Properties=species:S:1:pos:R:3 pbc="F F F"
C        0.00000000       0.00000000       0.00000000
H        1.10277510      -0.08684848       0.09188990
O       -0.51379997      -0.75571978      -1.07377625
H       -0.24507920       1.09296227      -0.14922760
O       -0.57744193      -0.60971707       1.08245289
C        0.25640869      -0.30318916      -2.19041967
H        1.31082737      -0.29387766      -2.00872278
C       -0.42453671      -0.43986949      -3.44043159
O       -0.29439265       0.87218142      -2.70444059
H        0.14586884      -0.39245617      -4.36805677
C       -1.80873239      -1.12969542      -3.54358292
H       -1.63513184      -2.19697666      -3.68096280
H       -2.29130602      -1.03124738      -2.63896680
H       -1.55265427      -0.51509219       0.94065464
C       -2.60236359      -0.60698420      -4.61214304
N       -3.20894718      -0.19832963      -5.52535534
