17
Properties=species:S:1:pos:R:3 pbc="F F F"
C        0.00000000       0.00000000       0.00000000
C       -1.09759843      -0.47884735       0.53111333
C        1.02414787       1.00433040       0.58731550
H       -1.67605960      -1.15579653      -0.09755331
H        1.38913381       0.76905537       1.58708048
C       -1.59668112      -0.22372684       1.97621799
H       -0.94238359      -0.78568125       2.67493200
H        0.64648819       2.00530076       0.60550630
C        0.53137648      -0.22552554      -1.41692448
H       -0.28683937      -0.45019466      -2.16321254
O        1.70611477      -0.08892804      -1.67271793
C       -2.96428204      -0.79242492       2.13853931
N       -4.04112291      -1.17527902       2.26635003
O       -1.61764920       1.10761559       2.37519908
H       -2.32602501       1.51554203       1.89115453
C        2.07999182       0.86000359      -0.48247951
O        3.18137550       1.36047578      -0.50657868
