18
Properties=species:S:1:pos:R:3 pbc="F F F"
C        0.00000000       0.00000000       0.00000000
C       -0.58893508       0.85340405       1.15210879
H       -0.62445718       0.51479715       2.16649675
H        0.34371823      -1.01968002       0.17380920
C       -1.59604692       1.58748841       0.41093123
H       -2.54533076       1.94370925       0.75278819
O       -0.87565517       0.06394272      -1.17899847
C       -0.33005586       2.27284670       0.58583838
H       -0.15517858       3.14302135       1.28520465
N       -0.93441468       2.14091945      -0.75459647
C       -0.28796923       1.21733320      -1.62756717
N        0.58282733       1.31826520      -2.57394171
C        0.94981736       1.05084157      -0.57833964
H        1.92139685       0.77367437      -1.03802526
C        0.93054730       0.08727038      -3.11785436
H        1.62292707       0.11624620      -3.98495865
O        0.72698176       0.93901217       0.56478661
O        0.49910805      -0.98148644      -2.68829894
