19
Properties=species:S:1:pos:R:3 pbc="F F F"
C        0.00000000       0.00000000       0.00000000
H        0.49655816       0.94760042      -0.01956422
C       -0.69488156      -0.78733408      -0.97064030
H       -0.96307600      -0.57061785      -2.00466394
N       -0.88955247      -1.96795130      -0.43740052
C        0.00000000      -0.94094968       0.99574697
O        0.53645223      -0.74490458       2.19686460
O       -0.37589890      -1.93062210       0.89664024
C        0.89643812       0.55542117       2.53102231
H       -0.03592217       1.15034962       2.62516928
O        1.61321604       0.56786549       3.76834702
C        0.92589509       0.05977553       4.86449146
H       -0.15618539       0.29936755       4.80287457
H        1.01574850      -1.00486612       4.92248964
H        1.35892510       0.57100487       5.74949360
C        1.77993941       1.23245454       1.57084036
C        2.49561572       1.77778769       0.67456049
H        3.08731675       2.22865367      -0.06645840
N        1.72131228       0.45084268       2.23908091
