21
Properties=species:S:1:pos:R:3 pbc="F F F"
C        0.00000000       0.00000000       0.00000000
H        1.02073932       0.32089040      -0.00446628
C       -1.17013621       0.63097668       0.33098030
O       -2.14927197      -0.32716042       0.34383354
N       -1.61597872       1.95053220       0.86022103
H       -0.79435414       2.60263920       0.81343555
N       -0.33185712      -1.30089676      -0.43085587
C       -1.55560338      -1.43421459      -0.09307307
H       -2.19218445      -2.33617759      -0.20851341
C       -1.99331069       1.73385084       2.26434612
H       -2.68201327       0.92188519       2.37064743
C       -1.19374871       2.14456224       3.40211344
N       -0.14597654       3.01396537       3.24976468
H        0.36685145       3.25617456       4.03668404
O       -1.48977017       1.61561430       4.58595657
H       -0.87177575       1.97749138       5.26949692
C       -2.21038985       3.03878164       3.07213926
H       -3.05739403       3.10026979       3.61885905
C        0.19680774       3.36604261       1.92816007
H        0.10137069       4.44613695       1.81686211
H        1.20818007       3.08087158       1.72641051
