20
Properties=species:S:1:pos:R:3 pbc="F F F"
C        0.00000000       0.00000000       0.00000000
H       -0.10838032       0.34493598       1.02828610
H        0.60771871      -0.88018203       0.02927225
C       -1.38376880      -0.28532484      -0.68459576
H       -1.38782632      -1.24964595      -1.14824188
H       -2.28383613      -0.17731869      -0.00997537
O       -1.31637144       0.38701960      -1.78346300
C        0.54826212       1.06043863      -0.89161450
N        1.81234789       1.23095632      -1.19012666
C        1.74503827       2.30099821      -2.04299140
H        2.61724353       2.79380488      -2.41888881
N       -0.30286890       1.94813716      -1.49532437
N        0.49568558       2.77950811      -2.33802438
C       -1.72973537       1.96058154      -1.40154111
H       -2.11026216       1.98955739      -0.35920763
H       -2.18330693       1.15201211      -1.89447892
H       -2.02270889       2.94244766      -1.87799120
C        0.02857733       3.76877642      -3.19549537
O       -1.12432623       4.17826366      -3.32211328
H        0.85033137       4.18480396      -3.77836800
