30
Properties=species:S:1:pos:R:3 pbc="F F F"
C        0.00000000       0.00000000       0.00000000
H        0.85855085      -0.18269925      -0.67941946
H       -0.59854376      -0.93449903      -0.02358231
O       -0.76281512       1.06893301      -0.31303972
C       -1.40999866       0.88539875      -1.55221963
H       -2.04456973      -0.00031257      -1.52165413
H       -0.67816627       0.81538743      -2.43653798
O       -2.32619619       1.84808195      -1.60439050
O        0.50894827       0.20194119       1.25582242
O       -3.73991203       1.47103477      -1.23110628
C        1.34915447      -0.80417126       1.71830440
H        0.81996208      -1.82262039       1.79052734
O        2.40358377      -0.57950211       2.05683327
C       -4.01863146       2.38465142      -0.19393790
H       -4.83014011       2.05870271       0.35022265
C       -3.02022171       2.72312546      -0.90211296
C       -1.96687639       2.96483374      -1.67731571
C       -0.93184888       3.21336150      -2.33264065
H       -0.03769183       3.37108207      -2.89877367
C       -3.04296541       2.52802229      -0.99419993
C        2.12954402      -0.49882656      -1.58093882
H        2.75200629       0.29003656      -1.68260062
H        2.67721844      -1.37900853      -1.31592631
C        1.61665082      -1.67097163      -1.41627228
H        0.41047847      -1.89450645      -1.50615716
C        1.19348133      -3.13640594      -1.29657614
H        1.42143965      -3.59551668      -0.31201965
O        2.16073275      -3.38493371      -0.54480666
N        1.78096962      -4.12325001      -0.85624075
H       -0.55129296      -2.10819674      -1.40904021
