22
Properties=species:S:1:pos:R:3 pbc="F F F"
C        0.00000000       0.00000000       0.00000000
H       -1.01848304      -0.10609454       0.42841068
H        0.50376934       0.79971462       0.50156987
H        0.52931142      -0.93757659       0.16993764
C       -0.08819443       0.29226866      -1.43794954
N        0.25108674       1.38467431      -1.98970747
N       -0.65628707      -0.64468992      -2.29321408
C       -1.19840395      -1.81524897      -2.06518006
H       -1.60458374      -2.32451057      -2.91404390
C       -1.28947568      -2.40671587      -0.76642263
N       -1.74466550      -3.59689808      -0.56550658
O       -2.22368407      -4.02575159      -1.84281790
C       -3.58085871      -3.67367435      -1.99187005
H       -3.69276333      -2.48963356      -1.95157087
O       -4.37131166      -4.47789955      -2.06470585
C       -0.02653289       1.32421148      -3.35035801
H        0.11399584       2.16116810      -3.93401432
N       -0.80488968      -1.65241671       0.26948643
C       -0.13362104       0.40495759      -2.48064351
C        0.09238607       0.71024197      -2.22208571
C       -3.26751995      -4.57726669      -2.68492246
H       -2.95028782      -5.40966225      -3.41223335
