12
Properties=species:S:1:pos:R:3 pbc="F F F"
C        0.00000000       0.00000000       0.00000000
C       -0.78059465      -0.75573593       0.96022558
C       -1.99425578      -1.02812243       0.38600367
N       -2.11317182      -0.43984967      -0.84553701
H        0.97834826       0.42554462       0.08152191
C       -0.92452729       0.13124722      -1.01836908
C       -2.60703373      -1.68968654       1.44380069
H       -3.59776020      -2.16631627       1.59671938
O       -0.65773803       0.85480869      -2.12642169
H       -1.45834684       0.82948744      -2.67349029
N       -1.80318272      -1.76578581       2.39801836
O       -0.61190301      -1.20630383       2.15715098
