17
Properties=species:S:1:pos:R:3 pbc="F F F"
C        0.00000000       0.00000000       0.00000000
C        0.60793561       1.16014624      -0.02395245
C       -0.45581087      -0.59159863      -1.35821390
H       -1.55222225      -0.52402252      -1.51763475
H       -0.20780051      -1.65052915      -1.43071496
C        2.02610779       1.45639133       0.32407695
H        2.20199394       2.24638271       1.08373284
C        0.32555720      -1.02807403       0.99898666
O       -0.48971978      -1.78618169       1.35884142
O        2.94458103       0.88049740      -0.21337253
N        0.26468334       0.17286170      -2.44291949
H       -0.10697651      -0.11322001      -3.33741689
H        1.14976621       1.61098480       0.80747020
H        2.30009031       3.26572156       0.77353168
H        3.87963057       1.32306373      -0.48671621
H        2.84673071      -0.14434916      -0.50494456
H        1.94789982       1.60496151       0.42995989
