8
Properties=species:S:1:pos:R:3 pbc="F F F"
C        0.00000000       0.00000000       0.00000000
H        1.08290529      -0.08528364       0.09023423
N       -0.72957450      -0.75433499      -1.05773234
H       -0.34239918       1.07649803       0.02853084
O       -0.61738759      -0.71758610       0.84664130
C       -0.35984865       0.38809901      -0.58630264
C       -1.22350466       1.30667341      -2.04754019
C       -1.14918411       1.23783970      -1.86996424
