22
Properties=species:S:1:pos:R:3 pbc="F F F"
C        0.00000000       0.00000000       0.00000000
N       -1.38358474       0.08462234      -0.10310575
H       -1.73135781      -0.26814789      -0.98327994
N        0.73334497       0.25250423       1.00565672
C        2.17682004       0.11008906       0.66478193
H        2.71315050       0.11940055       1.59061241
C       -2.23074698       0.94094276       0.62978566
H       -2.54150867       1.85167909       0.16193330
C       -2.66755629       0.64993066       1.76424944
O       -2.29851532      -0.49041826       2.42780924
O        0.52143854      -0.44277906      -1.14059067
C        1.87876368      -0.69539154      -0.97948897
C       -1.54298651      -0.34991470       3.68093872
O       -3.53115439       1.49394965       2.32168007
H       -3.83401251       1.09274459       3.15126491
N        2.57081151      -1.18787265      -2.10493565
H        2.11704946      -1.92779565      -2.58108020
H       -0.68866038      -0.98485363       3.57194877
H        2.78925633      -0.42785949      -2.79570436
C       -1.38425791       1.01094937       4.31572342
H       -1.79784179       0.53474689       3.45138621
H       -1.47338021       1.33668268       4.11450243
