17
Properties=species:S:1:pos:R:3 pbc="F F F"
C        0.00000000       0.00000000       0.00000000
H        0.50803316      -0.98302472       0.08754402
O        0.15725745       0.83269358       0.80671597
O       -0.82348686       0.15691778      -1.10875821
C       -0.15181440       0.51898301      -2.34174776
C        1.31256723       0.11121500      -2.16793942
H        1.49325442      -0.94341099      -2.17189312
C       -1.04469752      -0.51989841      -2.10598660
C       -0.33915186       1.96526146      -2.73325920
H        0.14149880       2.60828710      -1.96671355
H       -1.40688920       2.18197775      -2.70054603
C        2.26579642       1.05074990      -2.72572660
H       -0.74161434      -1.48207808      -2.15548682
O        1.97448742       2.23477125      -3.00091958
N        0.26440305       2.12296963      -4.26078892
H        0.58256751       2.15907335      -5.02653551
O       -0.42835563       2.04597735      -2.63381195
