23
Properties=species:S:1:pos:R:3 pbc="F F F"
C        0.00000000       0.00000000       0.00000000
C       -1.34189773      -0.05872291       0.13550098
H        0.75823516      -0.41305158       0.72894925
O        0.45778126       0.59413135      -1.04954410
C       -1.92817402      -0.76110977       1.23451471
N       -2.33680153      -1.35006261       2.10804605
C       -2.13989544       0.54928863      -0.93893820
N       -3.48787212       0.51404774      -0.87400985
H       -3.99918747       0.08035752      -0.11864978
H       -3.99416566       0.89190763      -1.63623571
N       -1.52539659       1.16790676      -2.02143574
C       -0.23555708       1.17913282      -2.00450373
C        0.60409462       1.81893301      -3.05604458
H        1.21073699       1.09776711      -3.51908231
C        1.39435244       2.51391792      -2.41934419
O        0.86138558       3.66730833      -1.90696263
C        1.67130458       4.46399832      -1.07184923
H        2.01788545       3.92229462      -0.21666610
C        1.24236047       5.91027689      -1.00564170
H        0.38497770       6.22468328      -1.63662720
H        1.24236047       6.38466072      -0.09138834
H        1.85887718       5.60640526      -0.47228509
C        0.58745301       6.24291134      -1.54281044
