20
Properties=species:S:1:pos:R:3 pbc="F F F"
C        0.00000000       0.00000000       0.00000000
H        0.32641929      -0.42366105      -0.97265661
O        0.46363586      -0.28216124       0.99112362
O       -1.07099617       0.91361672      -0.07981143
C       -1.57578623       1.26275146      -1.23713171
C       -2.27459288       2.32982683      -1.61385202
H       -2.55726337       3.19679523      -0.98095191
O       -2.58831382       2.36245728      -2.82340288
C       -1.39601934       0.43215972      -2.43658972
N       -0.75350112      -0.66024595      -2.51855850
H       -0.76205373      -1.04405499      -3.49585938
C       -2.12376595       1.17384100      -3.53221369
H       -1.48415470       1.48273551      -4.27812338
O       -0.05595636       0.56692845      -2.85392284
C       -2.65320587       1.45916581      -2.08197904
C       -1.60870302       3.36115551      -0.70069826
H       -0.39682508       3.45739293      -0.51364464
H       -2.98493242       1.62334061      -3.25573254
H       -1.16982484       4.06867123      -0.87189084
H       -1.56525958       3.08851910      -0.62130952
