11
Properties=species:S:1:pos:R:3 pbc="F F F"
C        0.00000000       0.00000000       0.00000000
H        1.02073932       0.32089040      -0.00446628
N       -0.98781425       0.88769853       0.33632225
C       -1.01865435       2.26904535       0.77612674
H       -0.40703571       2.38278627       1.79056489
C       -2.54124260       2.28253388       1.06602383
C       -2.32503009       0.44149700       0.30706292
H       -2.80627751       2.41660500       2.05226970
C       -2.24655318       2.08666706      -0.07015109
C       -3.42801332       1.35444665       0.64000309
O       -3.15161967       1.28111076       0.78108525
