15
Properties=species:S:1:pos:R:3 pbc="F F F"
C        0.00000000       0.00000000       0.00000000
H       -0.66295201      -0.32688832      -0.80108553
C        0.40316066       1.59591794       0.11403642
H       -0.37751105       2.34413671       0.36467439
H        0.93224132       1.92280626      -0.78112662
N       -0.34530014      -0.36705923       1.38091755
H       -1.18397284       0.13885587       1.69962990
N        1.30561113       0.95611769       1.11220300
C        0.79461473       0.26415312       2.06140494
C        1.49177539      -0.22257750       0.07185499
H        2.00919795       0.06916921      -0.76960635
C        0.59091872       0.72299629       3.50669670
H        0.54177135       1.78561616       3.62212157
H        1.87460995      -1.07992029       0.49529392
O        1.39979672      -0.00616109      -0.03920794
