13
Properties=species:S:1:pos:R:3 pbc="F F F"
C        0.00000000       0.00000000       0.00000000
H        0.80457407      -0.24910638      -0.65992868
O       -0.85577708       0.89250284      -0.54183275
C       -1.89178419       1.27488923       0.23467755
C       -0.26698634      -0.42721424       1.25247943
C       -2.80154991       2.29273629      -0.41062194
H       -3.12053800       1.91900945      -1.36113453
H        0.39137873      -1.14644456       1.78291559
C       -2.37828732       3.71985865      -0.34529126
H       -2.75870633       2.91627383      -1.10583842
C       -1.98154593       4.68378019       0.63366216
H       -2.86339355       1.60035968       0.29428202
H       -2.75547981       1.51923370       0.46600258
