14
Properties=species:S:1:pos:R:3 pbc="F F F"
C        0.00000000       0.00000000       0.00000000
N       -0.59092450      -0.43612075      -1.08476055
H       -0.33303759      -0.27716723       1.02194107
C       -1.66997445      -1.23721170      -0.95668751
C       -2.41768336      -1.85897708      -1.89308357
H       -2.28299665      -1.81417370      -2.91325593
O       -2.17241359      -1.53292429       0.28307348
H       -1.40838337      -3.12054181       1.07087040
H       -1.40838337      -3.12054181       1.07087040
O       -0.47478688      -3.13542271       2.50344610
H       -1.40838337      -3.12054181       1.07087040
H       -1.74960721      -2.46739030       0.80317640
H       -0.85803097      -4.12771130       1.45404232
H       -0.86712772      -4.11106396       1.44770885
