10
Properties=species:S:1:pos:R:3 pbc="F F F"
C        0.00000000       0.00000000       0.00000000
C        1.15246892      -0.24524489      -0.91201341
H        1.65520751      -1.22826958      -0.79792762
O        1.44611669       0.57301819      -1.69503033
N       -0.27683425      -0.87421274       0.84947854
C       -1.35334885      -0.73753238       1.78078580
H       -1.87450027       0.26320446       1.84264159
O       -1.73038673      -1.67091346       2.48756814
O       -0.58975816       1.17785835      -0.18366723
H       -0.08888227       1.64590025      -1.03111005
