22
Properties=species:S:1:pos:R:3 pbc="F F F"
C        0.00000000       0.00000000       0.00000000
H       -0.90330714      -0.45945397       0.34327471
C        0.91531879       0.86326534       0.59081531
C        1.94547415       1.18221462      -0.25414002
H        2.78536987       1.81715345      -0.06354362
C        1.68647802       0.50929850      -1.41904485
O        2.45529461       0.54558355      -2.57649994
C        0.56545866      -0.21962945      -1.36092520
O        1.02114904       1.41337109       1.79708314
H        3.08527851       0.57612562      -3.56193709
O       -0.06853181      -0.99595189      -2.35262966
H        0.13025700      -1.89122367      -2.19812655
C        0.02865362       1.10902452       2.75124454
H       -0.04780385       0.01497328       2.92243314
H       -0.96508723       1.47856200       2.42258000
O        0.45994356       1.78962636       3.93262863
H        0.85964155       2.36552024       4.91887760
C        3.36282158       1.43378365      -2.59635735
H        2.61590195       1.16660440      -1.87828660
C        4.23603964       2.13590622      -1.91767275
H        5.03823042       2.61235046      -2.18298507
H        2.41536522       1.23987675      -1.81672239
