11
Properties=species:S:1:pos:R:3 pbc="F F F"
C        0.00000000       0.00000000       0.00000000
H       -0.77251363      -0.02897582       0.79654402
C       -0.23969835      -0.93953490      -1.07810807
O        0.96070409       0.76389670       0.08005169
C       -1.26512027      -1.81427431      -1.15452325
C       -2.35643530      -2.09859014      -0.27526540
C       -3.31745934      -2.36408401       0.44504333
C       -4.32740641      -2.64684582       1.22999656
H       -4.05759239      -2.72587013       0.25991666
C       -2.47625875      -1.93898177       0.74797732
C       -4.04050446      -2.72048283       0.24734245
