21
Properties=species:S:1:pos:R:3 pbc="F F F"
C        0.00000000       0.00000000       0.00000000
N       -0.54619801      -1.16259253      -0.11893188
N        0.69561857       0.61403650      -1.08810472
H        1.47955608       1.17680669      -0.67430395
C       -1.14422917      -1.55064392       1.05097115
H       -1.65499187      -2.48945212       1.10254645
C        1.28117144      -0.45275861      -1.87650442
C        1.78146458      -1.75958180      -1.16459322
H        1.58854222      -1.82715797      -0.07357824
H        1.99395323      -0.04701766      -2.62444544
H       -0.06387710       0.55768108       0.91093951
C        0.73639417      -2.51108670      -1.99161577
H        0.02241534      -3.20045710      -1.49452209
C       -1.04435146      -0.71103013       1.99858499
O       -1.55734313      -0.81822145       3.26438427
H        1.19646084      -3.04890490      -2.87251854
C       -0.76135778      -0.96159238       4.24354267
O       -1.12894762      -1.05470026       5.37150860
O        0.15466422      -1.34986818      -2.35993648
O        3.15082788      -2.04389763      -1.46276534
H        3.31017137      -3.05468822      -1.22736907
