13
Properties=species:S:1:pos:R:3 pbc="F F F"
C        0.00000000       0.00000000       0.00000000
H       -0.04989275      -0.69331211      -0.81346691
N       -0.81362087       1.09916770       0.08215711
H       -1.51775050       1.38524938      -0.58301818
C        0.77617902       0.01174814       1.10449374
O        0.49690309       1.08178997       1.91314316
C       -0.50539923       1.82679033       1.30284584
H        1.54684079      -0.67996681       1.44465566
C       -1.07462287       2.89599180       1.68454123
C       -1.20023870       3.80171680       2.70472813
H       -0.60993648       3.59635568       3.64614677
O       -1.93841147       4.83369255       2.64971900
N       -1.15610600       3.03042102       1.69673312
