13
Properties=species:S:1:pos:R:3 pbc="F F F"
C        0.00000000       0.00000000       0.00000000
C        0.96622837      -0.79669005       0.64790887
H       -0.50532264       0.83572620       0.43716139
N        1.45871735      -1.78991318      -0.12245530
N        1.43005526      -0.63525665       1.99092865
O        2.03372431      -1.57750142       2.39572167
H        2.08002520      -2.40547085       0.24844262
C       -0.12963019      -0.58462662      -1.34249985
N       -0.90680826      -0.32019305      -2.38890696
C        0.78317082      -1.65459991      -1.44274855
H       -1.53450751       0.36402744      -2.33660316
H        0.94564748      -2.36202931      -2.17353201
O        1.22060919      -0.58395022       1.66522479
