6
Properties=species:S:1:pos:R:3 pbc="F F F"
C        0.00000000       0.00000000       0.00000000
C        0.52969897      -1.14585793      -0.82856899
H        1.28328133      -0.73746395      -1.46905899
N       -0.92239952      -0.14788654       0.91837215
O        0.67508280       1.14341378      -0.41105500
O       -0.94530153      -0.01087791       0.81779301
