5
Properties=species:S:1:pos:R:3 pbc="F F F"
C        0.00000000       0.00000000       0.00000000
H       -0.71298772      -0.12982409      -0.89291286
O       -1.06232476      -0.24321382      -1.23887467
H       -1.65320897      -0.44110209      -1.81697142
H       -1.72272468      -0.46438307      -1.88498282
