8
Properties=species:S:1:pos:R:3 pbc="F F F"
C        0.00000000       0.00000000       0.00000000
H        0.54806161       0.99585181       0.27714020
O        0.89897782       1.34075534       0.34162971
H        1.49580169       1.93522024       0.45526344
H        1.49580169       1.93522024       0.45526344
H        0.42075813       1.83103728       0.60198289
H       -0.64619005       0.11168474       0.16709644
H       -0.66309714       0.13269132       0.18688375
