5
Properties=species:S:1:pos:R:3 pbc="F F F"
C        0.00000000       0.00000000       0.00000000
H        0.80315828       0.69331211       0.13839982
C        0.05514896       1.07946765       0.44789207
C       -1.20779371       1.76039255       0.97913128
C       -1.27382982       1.79599643       1.00690842
