8
Properties=species:S:1:pos:R:3 pbc="F F F"
C        0.00000000       0.00000000       0.00000000
H        0.32446158       0.80193579       0.66311616
H        0.84161180      -0.56277013      -0.27835017
C       -1.45464706       0.01279242      -0.21150926
O       -2.73362112      -0.09126927      -0.56121683
C       -0.37891650      -0.59055024      -0.65296125
H       -1.39436018      -0.64231342      -1.27126026
H       -1.34850132      -0.52662688      -1.05085397
