14
Properties=species:S:1:pos:R:3 pbc="F F F"
C        0.00000000       0.00000000       0.00000000
H       -0.47183025       0.47662982       0.88447690
C        0.72336978       0.92657584      -0.81430435
O       -0.11357307      -1.22394609      -0.22705933
N        1.48710060       0.50372034      -1.92155623
C        0.96422857       2.24346566      -0.64027447
H        0.68428606       3.00577927       0.08678091
O        1.81019008       2.67700911      -1.62682796
C        2.16793013       1.58684182      -2.35262156
C        1.48308873      -0.85079998      -2.37998462
H        1.95523477      -1.58059096      -1.62700224
H        1.94007623      -0.90254748      -3.09481645
C        0.95366484      -0.82547879      -1.56760001
C        0.91158634      -0.85924125      -1.59626698
