15
Properties=species:S:1:pos:R:3 pbc="F F F"
C        0.00000000       0.00000000       0.00000000
H        0.62911803       0.62911803       0.62911803
H       -0.62911803      -0.62911803       0.62911803
H        0.62911803      -0.62911803      -0.62911803
C       -0.90309423       0.89791858      -0.88355011
C       -1.80213356       1.78425121      -0.01923501
H       -1.23687911       2.43105817       0.65175480
H       -2.48226810       1.16837013       0.56915843
H       -2.40740490       2.43105817      -0.65436238
C        0.04055595       1.74031091      -1.74424577
O        0.43271461       1.43817365      -2.84833980
O        0.37960076       2.81791687      -1.08098662
C       -1.74166548      -0.03128010      -1.76348531
O       -2.88909483      -0.29245695      -1.48189819
H       -1.22904313      -0.44730762      -2.63080215
