21
Properties=species:S:1:pos:R:3 pbc="F F F"
C        0.00000000       0.00000000       0.00000000
H        0.36059424       0.74863887       0.70541537
H       -0.02644622       0.41602752      -1.00713503
H       -1.00589478      -0.30874163       0.28452358
C        0.90963066      -1.17978525       0.02786925
N        0.61282647      -2.29479885      -0.59241354
O        2.02524900      -1.07885325       0.66764021
C        1.68303716      -3.15806413      -0.38864821
C        1.77050757      -4.48681259      -0.90987241
N        1.86677468      -5.54782772      -1.34286034
C        2.57653809      -2.46448088       0.38433105
H        3.53573346      -2.71358728       0.78780305
C        1.97703969      -6.86717701      -1.88328385
H        1.05824101      -7.18158340      -2.42092371
H        2.13638592      -7.60101271      -1.06585312
O        3.08266878      -6.87944746      -2.75823021
C        3.30858326      -8.16062927      -3.30195260
H        3.48728561      -8.90926838      -2.53013372
H        2.47110415      -8.48751736      -3.91829014
H        4.19357252      -8.05644608      -3.92967796
O        2.02217722      -1.27605069       0.60617852
