11
Properties=species:S:1:pos:R:3 pbc="F F F"
C        0.00000000       0.00000000       0.00000000
H        0.81817055       0.70627117       0.14098674
H       -0.76203436       0.43349874      -0.64767408
H        0.38514730      -0.90728503      -0.46539736
C       -0.59330124      -0.32161444       1.32840335
N       -1.61287951      -1.13519549       1.44941759
N       -0.14532834       0.22021902       2.43376994
C       -0.97307545      -0.31031144       3.41635346
H       -0.82513690      -0.05654886       4.46602869
C       -1.88630235      -1.14873457       2.88197374
H       -2.69098902      -1.74887037       3.30672717
