20
Properties=species:S:1:pos:R:3 pbc="F F F"
C        0.00000000       0.00000000       0.00000000
H        0.39817902      -0.39111966      -0.91289550
C       -0.40204695       0.42036223       0.99204487
O       -0.87362897       0.93576282       2.21681857
C       -2.27864647       1.04608381       2.25986528
H       -2.77674723       0.05423594       2.27512598
H       -2.51119256       1.56486440       3.18985915
O       -2.79278994       1.86290014       1.23197138
C       -2.73677659       1.22648013      -0.04737628
H       -3.26818109       0.25257629      -0.01244878
C       -3.35654783       2.09877920      -1.05528295
C       -3.85464263       2.87007499      -1.93272424
H       -4.27429724       3.51990700      -2.67198586
C       -2.09160376       1.58534145      -1.60044026
H       -2.18278480       0.66140902      -2.20882678
O       -1.15498340       2.41666842      -1.98480499
C        0.04807293       1.68178034      -2.01112890
H       -0.04927856       0.76411909      -2.59123230
H        0.86100268       2.29766130      -2.39575219
C        0.25656348       1.35153198      -0.53181648
