21
Properties=species:S:1:pos:R:3 pbc="F F F"
C        0.00000000       0.00000000       0.00000000
H        0.61987066      -0.16066855       0.88206869
H       -0.18281315       1.06326675      -0.15537795
H       -0.96941227      -0.52829939       0.11506006
O        0.78299183      -0.42285550      -1.09371626
C        0.15071654      -0.31566414      -2.30435085
H       -0.16305432       0.71056473      -2.49540448
C        0.72553599      -1.06999910      -3.45355034
H        0.95201433      -0.56798106      -4.39418030
C        1.55572343      -2.26562047      -3.05183363
H        2.23890448      -2.62184119      -3.79430914
C        1.85472047      -2.47935390      -1.64918721
H        2.72050762      -3.06356287      -1.33739913
O        0.83299196      -3.23508978      -2.34735060
N       -0.70921469      -1.26394665      -3.10145259
H       -1.32720876      -0.76785511      -3.72761250
C        1.36450064      -1.46150684      -0.64730418
H        1.49766099      -1.48996055       0.43415689
C        1.42912173      -3.39200759      -3.59318542
H        0.62648326      -4.03881454      -3.23890924
O        1.51239860      -2.08687305      -4.00133610
