15
Properties=species:S:1:pos:R:3 pbc="F F F"
C        0.00000000       0.00000000       0.00000000
H        1.08290529      -0.08528364       0.09023423
C       -0.74916035      -0.77458560      -1.08612776
H       -1.31120777      -0.11997384      -1.81584382
O       -0.81405729      -1.96204686      -1.12882626
C       -0.90065259       1.07849467       0.49575412
H       -1.71327257       1.43471551      -0.10228842
C       -0.67868310      -0.22377288       1.26758718
O        0.18097669       0.43935007       2.28805304
C       -0.19683671       1.75687742       1.81489706
H        0.71917355       2.43928838       1.68170679
C       -1.21754229       2.28689933       2.69792318
C       -2.03247786       2.68856835       3.40293479
H       -2.78568840       3.07968807       4.05454731
H       -1.31768727      -1.05091548       1.57679284
