10
Properties=species:S:1:pos:R:3 pbc="F F F"
C        0.00000000       0.00000000       0.00000000
H        0.32641929      -0.42366105      -0.97265661
O        0.48715162      -0.30649233       0.99561274
C       -1.17354453       1.00433040      -0.12888488
H       -2.05892086       0.49506879       0.18995765
C       -0.80558944       2.34673810       0.50629091
H        0.10864109       2.27794433       1.16685820
O       -1.27585793       3.41007042       0.25277352
C       -1.11187887       1.42070663      -1.53733313
N       -0.98804331       1.78462994      -2.62117982
