9
Properties=species:S:1:pos:R:3 pbc="F F F"
C        0.00000000       0.00000000       0.00000000
H        0.99987060       0.02793165       0.37997100
C       -1.07548285       0.13208188      -0.44135052
C       -2.51033854       0.11876732      -0.97230196
H       -3.06704235       1.05323339      -0.59900177
H       -2.50027537       0.10875964      -2.12221384
C       -3.08840537      -0.87657863      -0.59917450
O       -3.71624875      -1.83465934      -0.20931181
H       -3.67380500      -2.51304865      -0.90132785
