7
Properties=species:S:1:pos:R:3 pbc="F F F"
C        0.00000000       0.00000000       0.00000000
H        0.36721066       0.76237535       0.71835876
O       -0.11683854       0.29101211      -1.21002460
N       -0.31413844      -1.16014624       0.52103406
C       -0.16929497      -1.44048560       1.89527130
H       -0.31826609      -2.55075932       2.04359198
O        0.04935223      -0.72627318       2.76968145
