17
Properties=species:S:1:pos:R:3 pbc="F F F"
C        0.00000000       0.00000000       0.00000000
H        0.74694258      -0.61588109       0.50086582
H       -0.36554509       0.78896600       0.65727377
C       -1.06896126      -0.73771524      -0.84592885
H       -1.85166812      -1.39639020      -0.41509661
C       -0.09003067      -1.64561844      -1.59312654
O        0.98047268      -1.85461438      -1.22865093
O       -1.66428185       0.37322307      -1.67749810
H       -0.48393545      -2.15684772      -2.49622273
C       -2.97439146       0.18448219      -2.26951838
H       -3.59087038       0.03560580      -1.48345923
H       -2.45288634       0.30387813      -2.87769341
N        0.50237077       0.59258074      -1.27144384
C        0.93354869      -0.53969640      -2.03100443
O        1.79829884      -0.57076055      -2.84791398
H       -1.95350003       0.40670940      -3.48113275
H        1.14670789       1.37034750      -1.27426314
