9
Properties=species:S:1:pos:R:3 pbc="F F F"
C        0.00000000       0.00000000       0.00000000
C        0.60653728      -1.15934336      -0.75374609
H        1.06532323      -0.19735265      -0.52529782
H        0.77808535      -0.48726666      -0.58758283
C        0.94940680      -0.59455466      -0.71695876
C        1.28270471      -2.28797579      -1.40940189
C        1.92472720      -1.45851910      -1.66269279
C        1.06963956      -0.19233732      -0.61755681
H       -0.82195354       0.54091066       0.70420665
