13
Properties=species:S:1:pos:R:3 pbc="F F F"
C        0.00000000       0.00000000       0.00000000
H       -0.67294645      -0.28264689      -0.83627325
C       -0.38528386       1.50970531      -0.47879383
H       -1.06932962       2.36193800      -0.67342156
H       -0.89610165       0.27246141      -0.51736438
C       -1.15028656      -0.06845752      -0.66411811
N       -2.37033868      -0.41730994      -1.18052208
C       -1.04684758      -0.31829602      -0.60439759
O        0.81623280       2.27707744      -0.36745691
H        1.66445303       2.04026508      -0.06855565
C       -3.23383427      -1.31707251      -0.44072437
H       -4.26826811      -1.48786807      -0.07620424
C       -2.01065397      -1.38552999      -0.95845211
