23
Properties=species:S:1:pos:R:3 pbc="F F F"
C        0.00000000       0.00000000       0.00000000
H        0.92059505       0.47832599      -0.26193184
H       -0.29558089      -0.48726666      -0.92914069
C        0.36560377       0.39468703       1.45363462
H        0.27142459      -0.35201278       2.21420622
H        0.59033424       0.85513169       2.34715939
C        1.02521157       0.92021680       2.68198061
C        1.12608576       2.13967800       3.49661970
N        1.60362971       3.13011050       4.17122602
N       -0.31411493       1.76026917       3.45224762
H       -0.46883154       2.52036858       4.06739902
C       -1.41370010      -0.39468703       0.49816841
H       -1.95703614      -0.33549443       1.50998926
C        2.18593550       2.91315413       2.90554523
N        2.81008697       3.88316584       2.12990975
H        3.34438872       3.34117556       1.46593106
H        2.51830816       3.24402404       2.88307786
H       -2.09614086      -0.45079133      -0.34990358
C        0.00772214      -0.47652721       1.20595253
C        2.12134838       0.26307750       3.40830708
C        2.89925003      -0.47534841       3.92376328
H        3.59870768      -1.13931131       4.38724089
H       -0.24755166       2.56494784       3.98979878
