13
Properties=species:S:1:pos:R:3 pbc="F F F"
C        0.00000000       0.00000000       0.00000000
C       -0.90353054       0.75663972       0.77409768
C       -0.79566151       1.80849433       1.64522600
H       -1.50892699       2.27787971       2.25631452
N        0.81257308      -0.91418374      -0.46913931
O        0.54200262       2.01929593       1.43758214
H        0.62795728      -1.94703496      -0.42870781
H        1.73461676      -0.53678977      -0.85940683
C       -2.37088513       0.68097615       0.72888911
C       -3.40508389       1.20400548       0.56835163
H       -4.31553268       1.66445017       0.42702371
C        0.87055767       0.73187840       1.02928555
H        1.82300758       0.24461174       1.23787534
