15
Properties=species:S:1:pos:R:3 pbc="F F F"
C        0.00000000       0.00000000       0.00000000
H       -0.45934755       0.77461380       0.64890099
H        0.56394660      -0.87104380      -0.16045661
N       -0.37150988       0.61243600      -1.16781890
C       -1.43600285       0.40471172      -1.97168684
H       -2.39948726      -0.08255494      -2.12124753
N       -0.65649945       1.02608836      -2.94037867
H       -0.62177950       1.86394954      -3.50330186
C        0.69654280       0.81528664      -2.98206544
N        0.47083062       0.87859696      -4.18951941
C        1.85960197       0.57678843      -1.98561716
H        1.60721755       0.30432701      -0.98214018
H        2.90344381       0.52171355      -1.75701225
C        1.94415259       0.79066753      -3.35645819
H        2.68262148       0.84368354      -4.07252550
