7
Properties=species:S:1:pos:R:3 pbc="F F F"
C        0.00000000       0.00000000       0.00000000
H        0.40283290      -0.36328578      -0.87558472
C       -0.29442737       0.45498893       1.17063928
C       -0.46320787       0.66886801       2.53367519
C       -0.12461740       0.59732217       3.87990570
H       -0.26425594       0.42037183       5.00759745
N        0.70595616       0.94617462       2.84774876
