8
Properties=species:S:1:pos:R:3 pbc="F F F"
C        0.00000000       0.00000000       0.00000000
H       -0.71237624      -0.17695034      -0.88527274
H       -0.63101143      -0.59565258       0.69218624
H        0.35221905      -0.48726666       0.90918219
C        0.85164571       1.03979671      -0.64313310
C        0.29977250      -0.32171667      -0.59199464
C        1.69823551       1.88419545      -0.45772707
H        2.41888642       2.60298133      -0.29990211
