17
Properties=species:S:1:pos:R:3 pbc="F F F"
C        0.00000000       0.00000000       0.00000000
H       -0.76263046       0.76065677       0.16701870
H        0.49217638      -0.82152164      -0.47724620
N        0.91197115       0.21080169       1.00038469
C        1.76301122      -0.26534951       1.93393135
O        1.76301122       0.48055774       3.10684252
H        1.66450024      -0.02923506       3.90239668
C        2.72058368      -1.23536122       1.66147852
H        2.42989826      -2.17970085       2.07211733
C        3.98539782      -1.02148211       1.12612867
C        4.66659880      -0.27064568       0.46559197
C        5.49417353       0.64152741      -0.33687818
C        6.35713100       1.48592615      -0.25691342
H        7.12024212       2.23262596      -0.18620077
C        0.91197115       1.43026280       1.82124567
H        0.88667178       2.43982053       1.41105986
C        1.06490886       0.96116567       3.05633926
