15
Properties=species:S:1:pos:R:3 pbc="F F F"
C        0.00000000       0.00000000       0.00000000
H        1.10379946      -0.05713373       0.10228210
C       -1.30120134      -0.53258389      -0.55075151
C       -0.98263568       1.20541000       0.21520062
H       -1.34075952       2.12622786       0.72110707
H       -1.30120134      -1.22136784       0.31969434
C       -2.56594372      -1.18972325      -0.91060162
H       -3.52791452      -1.57417130      -0.57161641
N       -1.73888505      -0.94507021      -2.24634719
C       -1.19855249       0.43496722      -2.40008497
H       -0.30058616       1.14857209      -2.31687617
C       -2.32238436      -0.48961639      -2.71984267
N       -2.49498653      -0.21323144      -2.44002748
C       -0.79180217       0.19352734      -0.80566853
O       -2.13759828      -0.96968937      -2.25707960
