12
Properties=species:S:1:pos:R:3 pbc="F F F"
C        0.00000000       0.00000000       0.00000000
C        0.99180979      -0.75663972       0.65719706
H       -0.75090218       0.76065677      -0.21365002
C        2.15288067      -1.40483832       1.23534155
H        3.18711519      -1.79634047       1.33117747
C        0.82092726      -1.76387620       1.52704394
C       -0.08260328      -2.52051592       2.30114174
C       -0.89304191      -3.56031275       2.99548292
H       -1.46889162      -4.23668623       3.62715960
C       -0.67834234      -2.63572907       1.84694171
C        0.63351107      -1.08673072      -0.36575779
O       -0.14713573      -2.80367303       2.06854248
