9
Properties=species:S:1:pos:R:3 pbc="F F F"
C        0.00000000       0.00000000       0.00000000
C        0.86455685      -1.03649914      -0.02663670
H        1.61875629      -0.68026745      -0.59618181
H        0.23595977       1.06562388       0.20215796
C       -1.34075737      -0.51142162      -0.20812425
C       -2.47005868      -0.69144934       0.03919661
H       -3.48353434      -0.85301268       0.26115125
C        0.93173951      -2.37948847       0.51591641
N        1.24959159      -3.41208410       0.96493274
