22
Properties=species:S:1:pos:R:3 pbc="F F F"
C        0.00000000       0.00000000       0.00000000
H        0.99696469       0.37739396       0.09238239
C       -0.87789845       0.73517478       0.75213748
O       -0.98576754      -0.31667984       1.62326574
C       -1.93847728       1.83079946       1.12587082
H       -1.38183856       2.22935581       0.22686833
C       -0.05955901      -1.15934336      -0.96564662
H        0.59783828      -1.10529792      -1.78259659
H       -1.13687897       1.14201558       0.78658336
C       -1.01512885       1.49213254       0.23053229
C       -0.46699077      -2.58977509      -0.87641764
H        0.54088908      -2.20532703      -1.03286946
C       -1.64407635      -3.24691439      -0.29029864
H       -2.39020777      -3.61725426       0.34894764
N       -0.23367226      -3.00841618      -0.88727140
C       -0.73479354      -2.70022225      -1.42026782
C       -2.71267605       3.05026054       1.39868772
O       -3.66060400       3.66737795       1.60628724
O       -1.54032111       3.79616785       1.36256790
C       -2.33506608       4.31464338       2.48527074
H       -2.19205236       5.18568707       3.05389118
C       -3.08668089       3.18601108       1.91767740
