10
Properties=species:S:1:pos:R:3 pbc="F F F"
C        0.00000000       0.00000000       0.00000000
H       -1.06435156      -0.05816317       0.37506276
H        0.72052068       0.57418764      -0.54411197
C        0.44031128      -1.22675860       0.48299849
N        1.53661060      -1.94046831       0.72309172
O        2.54555082      -2.58978319       0.56647527
C       -0.78481853      -1.91071987       1.09304070
H       -0.19815373      -2.17808867       1.92179751
H       -0.84990418      -2.07536054       0.03778875
H       -1.74137330      -1.96579468       1.56934834
