13
Properties=species:S:1:pos:R:3 pbc="F F F"
C        0.00000000       0.00000000       0.00000000
C       -0.81292450      -0.76737219       0.89173532
N       -1.75802410      -1.23646927       1.70144713
C       -2.05693722      -0.62403327       2.88992167
H       -0.07087235       1.07219791       0.18294260
O       -2.98976684      -0.56072295       3.68912125
H        0.06332369      -0.05301598      -1.02668345
N        0.09297383      -1.89600444       0.63398504
H        0.19223206      -2.53514624       1.43557405
C       -0.48831415      -0.69313467       0.07033038
C       -0.78991699       0.02416539       3.16740346
N        0.02123833       0.61981797       2.69908261
H       -2.60987926      -1.77845955       1.67520177
