8
Properties=species:S:1:pos:R:3 pbc="F F F"
C        0.00000000       0.00000000       0.00000000
O       -0.48303947      -0.64931494       0.89953434
C        0.64012319       0.23849824      -1.39135122
H       -0.31292689      -0.23982775      -1.30303836
H       -0.37226874      -0.04414865      -1.03459835
C       -0.53365773      -0.23059887      -0.97772706
C       -0.50246495      -0.20238250      -1.14112043
H        1.62067056       0.66527081      -1.95747066
