6
Properties=species:S:1:pos:R:3 pbc="F F F"
C        0.00000000       0.00000000       0.00000000
C       -0.06420593      -0.82529950      -1.04098833
H       -0.25228429       0.83687717       0.65122080
H        0.00068358      -1.10285366      -2.09305882
O        0.85205519      -1.08256567       0.30025265
O       -0.66936749      -1.46455741       0.08596635
