14
Properties=species:S:1:pos:R:3 pbc="F F F"
C        0.00000000       0.00000000       0.00000000
O       -0.21837676      -0.87231272       0.86826307
C       -0.94336921       1.14398789      -0.14643815
H       -0.90658671       2.03162289      -0.74280238
C        0.94777006       0.23542085      -1.17779732
H        1.23739338      -0.75561285      -1.45863485
H        1.95809460      -0.26972714      -1.20892501
C        2.00971365      -0.88811791      -1.62727940
C        2.99384308      -1.67618585      -1.78004456
C        3.86991358      -2.47666430      -2.28584433
H       -1.85764837       0.97319233       0.45938495
C        4.73976660      -3.33919525      -2.94272661
N        5.09781170      -4.44137287      -3.21310973
O        0.28872949       0.15735173      -0.33769521
