7
Properties=species:S:1:pos:R:3 pbc="F F F"
C        0.00000000       0.00000000       0.00000000
H        0.95655477       0.05507486       0.47630766
C       -0.48507485       1.00377417      -0.47036016
C       -1.26736784       2.17847300      -1.06112051
H       -2.03071451       2.96704388      -0.79212773
C       -0.19327855       1.06889129      -0.68262607
O       -0.22236609       1.41110086      -1.66445255
