8
Properties=species:S:1:pos:R:3 pbc="F F F"
C        0.00000000       0.00000000       0.00000000
N       -1.12082839      -0.44793484       0.39496443
C        1.27576721       0.82103455      -0.19803566
H        1.90677845       1.41668713       0.49415076
H        1.34065676       0.54348040      -1.25010610
N        1.08532393      -0.23542085      -1.05240047
H       -1.57836938      -1.00065756      -0.34398976
H        0.94135654       0.65596509      -1.50495327
