19
Properties=species:S:1:pos:R:3 pbc="F F F"
C        0.00000000       0.00000000       0.00000000
N       -0.50451869      -0.45498893      -1.09660602
H       -0.52443737       0.05713373       0.97662705
C       -0.41906247      -0.52653474      -2.48213005
H       -0.36451873      -1.08998990      -3.36646175
C        1.35617113       0.51142162      -0.04178316
C        1.87156177       1.64792633       0.52357346
C        1.95976210       1.87103760      -0.90644056
H        2.43143106       1.92920077      -1.93164515
C        2.03315234       2.30506563       1.82854629
H        2.39127612       1.38424790       2.33445263
H        1.69709909       2.24793196       0.77218306
C       -0.66343141       0.74235874      -2.02705693
H       -0.94274175       1.20280337      -2.90505219
H       -0.66343141       1.35667956      -1.25071335
H        2.13241053       2.94420743       2.63013530
O        1.84278202      -0.64167434      -0.64649630
O        0.80577433       2.64914227      -0.49979123
C        0.46057606      -1.00580502      -0.68908149
