8
Properties=species:S:1:pos:R:3 pbc="F F F"
C        0.00000000       0.00000000       0.00000000
H       -0.87538195       0.50514799      -0.50540185
H        0.79163849       0.77461380       0.07335611
H       -0.57584965      -0.67637336       0.63167673
N        0.98473036      -0.89976257      -0.56853443
C        1.06821477      -2.40477419      -0.83096254
H        1.30565977      -3.41433191      -0.49553397
C        1.30090845      -1.72506213      -1.56242108
