17
Properties=species:S:1:pos:R:3 pbc="F F F"
C        0.00000000       0.00000000       0.00000000
C       -0.81735128       0.99792570      -0.61723518
O       -1.02218390      -0.00584847      -1.26111400
H        0.77146590      -0.76065677      -0.11975363
C       -0.74593270       0.82103455       1.05374789
H       -0.38725093       1.31724191       1.97961235
C       -1.21524489       2.35943913      -1.00305867
H       -2.10744810       2.93362665      -1.14155436
N        0.04321861       2.42583776      -0.72745097
C       -2.15895343       0.26728839       0.65170896
H       -2.65762687       0.54484254       1.58035731
H        1.02768850       2.47679496      -0.63622642
H       -3.08302546       0.21015465       1.26402092
C       -3.45681286      -0.14267683       1.51170135
H       -2.92094207       0.53369653       0.84577274
C       -2.63183403       0.78546393       1.03539968
C       -2.78544807       0.89427996       1.32068157
