23
Properties=species:S:1:pos:R:3 pbc="F F F"
C        0.00000000       0.00000000       0.00000000
H        0.57662261      -0.58492011      -0.71657103
C        0.00000000       0.97001171       0.99557793
N       -1.35897624       0.37940884       0.47888446
H        0.59617209       1.89082944       0.82595241
C       -0.52749407       0.58551013       2.35719681
H        0.02344149      -0.25235111       2.47785354
C       -2.49339223       0.75372493      -0.37778693
H       -2.81381345      -0.15050149      -0.89528495
C       -1.35528886       0.80862141       3.52658772
N       -1.77738130       0.86884344       4.61613369
H       -3.50122952       0.69865006      -0.02263898
C       -2.74223828       1.97318602      -1.16001976
C       -3.34844279       2.51987815      -2.47764707
H       -4.11559010       2.57495308      -3.22152281
C       -4.00339460       2.79422045      -0.88382220
H       -4.61425018       2.62957978      -0.02089220
C       -1.41004062       2.63926601      -1.20106435
H       -0.28207409       2.69742918      -1.23581660
C       -2.74199390       2.99830389      -0.90936196
C       -1.54430330       1.39581227       1.58933783
H       -2.25096083       2.10064101       1.74409831
N       -1.85584676       2.59862995      -2.15076351
