13
Properties=species:S:1:pos:R:3 pbc="F F F"
C        0.00000000       0.00000000       0.00000000
H       -0.47820464       0.50514799       0.89053077
H        0.38836509       0.71878582      -0.62723118
C        0.84307373      -1.08166766       0.72230136
H        1.18142772      -1.67732024       1.59569359
C       -0.70376605      -1.17469895      -0.68241733
H       -1.48038971      -0.40008515      -0.51233411
C       -1.28065765      -0.10698831      -1.61412954
H       -1.28065765      -1.02780604      -0.99429572
C       -1.40882611      -0.93228781      -0.57906818
C       -1.66168690      -0.77776819      -0.63057989
C        1.36446953      -0.75318617      -0.41098809
H        2.13161683      -0.80826104      -1.15486383
