17
Properties=species:S:1:pos:R:3 pbc="F F F"
C        0.00000000       0.00000000       0.00000000
H        1.02073932       0.32089040      -0.00446628
C       -1.17013621       0.63097668       0.33098030
O       -2.14927197      -0.32716042       0.34383354
N       -1.61597872       1.95053220       0.86022103
H       -0.79435414       2.60263920       0.81343555
N       -0.33185712      -1.30089676      -0.43085587
C       -1.55560338      -1.43421459      -0.09307307
H       -2.19218445      -2.33617759      -0.20851341
C       -1.99331069       1.73385084       2.26434612
H       -2.69488621       0.90670824       2.37263441
H       -1.15769422       1.62775636       2.98724890
O       -2.73580194       2.98504925       2.47436428
C       -3.28732562       3.13293576       3.65336800
O       -3.28732562       2.30382848       4.56192732
C       -3.94741917       4.43477917       3.82766223
N       -4.43421602       5.52527332       4.02247143
