11
Properties=species:S:1:pos:R:3 pbc="F F F"
C        0.00000000       0.00000000       0.00000000
H       -0.66295201      -0.32688832      -0.80108553
C        0.30323121       1.60154498      -0.00132680
H       -0.29422632       2.19647336      -0.72327143
H        0.07284859       1.98225737       0.99370146
H       -0.36699277      -0.38071239       0.95313889
N        1.76438928       1.61433744      -0.16179900
C        1.92511833       0.41708696      -0.48313409
O        3.02281380      -0.42708707      -0.60368884
O        1.27677667      -0.56076431      -0.20852578
N        4.10880613      -0.25757438      -0.94189727
