31
Properties=species:S:1:pos:R:3 pbc="F F F"
C        0.00000000       0.00000000       0.00000000
H       -0.67131591       0.57852900       0.66838479
H        0.91950351       0.58420897      -0.03622812
C        0.28504866      -1.27729464       0.66945034
C        0.50520378      -2.34888005       1.18649507
C        0.76701212      -3.62666583       1.77268457
H        0.34613782      -4.53327847       1.24560106
O        1.42902362      -3.72446823       2.82846594
C       -0.63592154      -0.03993964      -1.39100909
H        0.02281272      -0.46596143      -2.05844736
C       -1.27886271       0.50539351      -0.44120008
N        1.11366379      -1.31551278      -2.92169905
H        1.75935745      -1.83696592      -3.53167105
C       -2.00393462       1.02638733       0.51741081
H       -2.74488282       1.38926649       1.22974062
C       -2.96712542       0.87803715       2.18961143
O       -2.11568689      -0.13620520      -0.03030127
H       -2.35364509      -0.04589528       2.14389443
O       -1.16415298       1.91458750       0.17278615
N        0.66675222      -0.00916424      -2.54995322
C       -0.80794293      -1.50555050      -2.28559947
H       -0.62511253      -2.37501025      -1.68935120
H        1.26058984      -0.36460340      -3.22875547
C       -1.72694182      -1.20552087      -3.28435946
H       -2.52788067      -1.80565667      -3.71613836
H       -2.11136460      -2.15181732      -3.52775550
C       -2.43223953       1.74253058       3.33304739
H       -2.49210787       1.13426304       4.18681908
C       -2.46209335       2.30774283       2.19614697
O       -4.33628273       0.59769785       2.37647080
H       -2.45378208       2.80054951       1.24642491
