23
Properties=species:S:1:pos:R:3 pbc="F F F"
C        0.00000000       0.00000000       0.00000000
C       -0.58853894      -1.25271595      -0.12815140
N        0.84212178       0.56076431      -0.98207563
H        1.33182836       1.41397250      -0.61502981
C       -0.41902962      -2.00701499      -1.25916767
H       -0.97617126      -2.91775131      -1.33024454
O       -1.39797544      -1.62377238       0.83269632
C        0.54961884      -1.64494979      -2.27559614
H        0.69159591      -2.34935665      -3.12161779
O        1.20575392      -0.58100557      -2.27846718
C       -0.37016469       0.62751907       1.20718515
H        0.04829568       1.58387506       1.52083039
N       -1.20348859      -0.03557342       2.03687072
C        0.31677890       0.90299451      -2.31165862
C       -1.62714076       0.44715562       3.33686662
H       -1.33994627       1.51031411       3.47583628
H       -2.69285631       0.38201469       3.40691257
H       -1.18329847      -0.11052546       4.13492393
C       -0.24956000       1.90223873      -2.25447130
H        0.85869682      -0.01737887      -2.24733806
C        0.19034982       0.79620218      -3.02675891
C        0.13567841       0.74150723      -3.03310823
H       -1.84507251      -2.44040680       0.56046093
