7
Properties=species:S:1:pos:R:3 pbc="F F F"
C        0.00000000       0.00000000       0.00000000
H        0.67956585      -0.85134727      -0.03869629
H        0.48934183       0.89497530      -0.14304964
C       -0.55373579      -1.13481677       0.13589062
N        1.55119991       1.42026424      -0.60068238
O        2.57459688       1.24780345      -0.06048316
C        0.68853182      -0.53795606      -0.04473838
