23
Properties=species:S:1:pos:R:3 pbc="F F F"
C        0.00000000       0.00000000       0.00000000
H        1.10277510      -0.08684848       0.09188990
O       -0.50651205      -0.74500036      -1.05854535
C       -0.33762425       1.51198459      -0.04909139
H       -1.44250131       1.57956076      -0.13142765
H       -0.29464358      -0.18307698      -1.82028913
O        0.17602259       2.04251504      -1.22671723
H        1.14078569       2.06783628      -1.12929821
N        0.12119082       2.06393838       1.27941668
H        1.09241652       2.38988709       1.17275143
C        0.12119082       0.90547347       2.30920148
H        1.11570382       0.61497200       2.64780450
H       -0.44032338       1.14526749       3.13871956
C       -0.57771307      -0.40776801       1.35678685
H       -1.68404508      -0.32091951       1.33257949
O       -0.17541239      -1.62734115       1.88866460
H        0.18373317      -2.53051138       2.28590202
C       -1.55469179      -1.24089432       1.66339755
C        0.85930485      -3.75750589       2.84998131
H        0.67646682      -2.66345453       2.89147258
H        0.93462908      -4.96186876       2.61179018
H        0.95078665      -4.96603394       2.64024329
C        0.92547828      -2.49840307       3.26655579
