12
Properties=species:S:1:pos:R:3 pbc="F F F"
C        0.00000000       0.00000000       0.00000000
H        1.02361643       0.02740956       0.23228785
C       -1.19485378      -0.07488164      -0.28216308
C       -2.56117630      -0.06261136      -0.63017231
C       -3.51686454      -1.03764558      -0.51674116
H       -3.32689905      -1.91163576       0.03330761
N       -2.97839403       1.11562836      -1.36514080
C       -4.72984171      -0.68556833      -1.14349961
H       -5.62297916      -1.27469254      -1.13177526
C       -4.54856825       0.55155253      -1.79524350
H       -5.20130587       1.10923362      -2.43385506
N       -3.22984219       0.95093381      -1.49598682
