9
Properties=species:S:1:pos:R:3 pbc="F F F"
C        0.00000000       0.00000000       0.00000000
H        0.56776416      -0.60013586      -0.71104151
C        0.62519962       1.13068092       0.74214816
N       -0.27784866       1.40282631      -0.41830164
H        1.68117952       1.46356726       0.66345596
H        0.35536236       1.58637929      -1.18344975
H       -0.71481574      -0.51132786       0.49767640
O       -0.00956506       1.33851814       1.98391128
C        0.02236354      -0.39547998       0.01265490
