9
Properties=species:S:1:pos:R:3 pbc="F F F"
C        0.00000000       0.00000000       0.00000000
H        0.32446158       0.80193579       0.66311616
H        0.82961947      -0.53683323      -0.29058746
O        1.35939217      -0.76150239      -1.26309144
O        2.38207722      -1.36395788      -1.17787516
C       -0.86338079       0.52740884      -1.12094223
H       -0.89270598       1.59690821      -1.13545036
C       -1.78027654       1.58345771      -0.55159098
C       -1.68842101       1.61143243      -0.38155133
