16
Properties=species:S:1:pos:R:3 pbc="F F F"
C        0.00000000       0.00000000       0.00000000
H        0.80315828       0.69331211       0.13839982
C       -1.17010331      -0.01192219      -0.71247053
H       -1.57746565       0.72298020      -1.37494588
N       -0.07548699      -1.17785835       0.61306608
N       -1.80476904      -1.17314076      -0.44550729
O        0.85043454      -1.52166271       1.44286525
N       -1.10930836      -1.91642821       0.44126016
C        0.77291828      -2.76889753       2.17832065
H        0.74182373      -3.56861210       1.46811724
C       -0.14654988      -2.78186393       3.35071468
H       -0.85794163      -3.59652662       3.48616195
H       -0.48422810      -1.87937164       3.65333772
H        0.00541575      -2.68341589       2.33675528
O       -0.86966306      -2.51683950       2.58142161
C       -1.20579791      -2.54230285       2.61161423
