5
Properties=species:S:1:pos:R:3 pbc="F F F"
C        0.00000000       0.00000000       0.00000000
C        0.70261443       0.15240216      -1.14263082
H        0.76695758      -0.56821132      -1.95790720
H       -0.61706489      -0.90661287       0.27236596
O        0.08533137       0.94855791       0.80960190
