5
Properties=species:S:1:pos:R:3 pbc="F F F"
C        0.00000000       0.00000000       0.00000000
N       -0.22732833      -0.98611188       0.98183674
H       -0.66237849       0.86306459       0.06688508
H        1.02513468       0.28517115      -0.11258578
C       -1.28426147       0.42285550      -0.39995503
