14
Properties=species:S:1:pos:R:3 pbc="F F F"
C        0.00000000       0.00000000       0.00000000
H        0.92459267       0.17611550       0.50893146
N       -1.26974905      -0.17832761       0.48252997
C       -0.37177962      -0.08462234      -1.33668149
C        0.37939447       0.12321495      -2.51168752
N        1.05683041       0.24077916      -3.53156900
N       -1.79520035      -0.45168155      -1.34290957
H        1.62663007       0.35479859      -4.35766077
C       -2.29025555      -0.70065928      -2.59583759
N       -2.72982812      -0.98701519      -3.70834589
H       -3.09356666      -1.18782568      -4.62892675
H       -1.62948871      -0.13265422       1.46792364
O       -2.10169005      -0.38736185      -0.45399424
O       -1.63395572      -0.29694846      -1.49770260
