13
Properties=species:S:1:pos:R:3 pbc="F F F"
C        0.00000000       0.00000000       0.00000000
C       -1.52293849       0.09314544      -0.11349050
H       -1.88815677      -0.29455251      -1.08735156
H        0.67944902       0.74832618      -0.35107887
O       -2.16200447       1.35956454       0.06727330
H       -1.83334541       1.68249369       0.92085373
C        0.21708469      -0.97503424       0.93759316
C        1.33302844      -1.27938080       1.74390626
N        2.22590685      -1.48837674       2.43787146
N       -1.00227392      -1.61522222       1.12580121
H       -1.16287351      -2.36218643       1.72342300
C       -1.90482426      -0.98770314       0.24278307
H       -2.96399593      -1.36389899       0.12645923
