5
Properties=species:S:1:pos:R:3 pbc="F F F"
C        0.00000000       0.00000000       0.00000000
C       -1.11435568      -0.48615801       0.53922188
H        0.70751059       0.73383576       0.43933257
H        0.35974887      -0.27716723      -1.01284671
H       -1.37039459      -0.21398479       1.56316769
