24
Properties=species:S:1:pos:R:3 pbc="F F F"
C        0.00000000       0.00000000       0.00000000
C        0.70749825       0.89603508      -0.98826367
H        0.63706791      -0.52556229       0.68031478
O        1.85494137       1.19317830      -1.09399426
C       -1.03521907      -0.59973931      -0.81922674
H       -1.31974578      -1.62458587      -0.93598920
C       -1.47159767       0.52974558      -1.50182152
N       -2.37121177       0.65495622      -2.44581079
O       -2.98272181      -0.65183377      -2.59021807
N       -0.71583480       1.61553860      -1.01399553
C       -2.28814769      -1.06869125      -3.71977329
H       -2.68552017      -2.00626779      -4.10854626
N       -1.32085848      -0.49298257      -4.26328945
C       -1.02527678       2.95334005      -1.47986102
H       -2.08101320       3.17005634      -1.31690812
H       -0.40012884       3.66073132      -0.97618747
C       -0.77913481       2.86262989      -2.94658661
H       -1.00290179      -1.02456105      -5.11112642
N        0.23229073      -0.13476872      -1.38418806
N       -0.54257810       2.87211537      -4.01056480
H       -0.31552571       2.88055658      -4.95357895
H       -0.03901297       3.42458439      -3.55365014
O       -1.60240412       3.68251109      -2.25918531
O       -0.12212825       2.12774181      -1.93842983
