19
Properties=species:S:1:pos:R:3 pbc="F F F"
C        0.00000000       0.00000000       0.00000000
H       -0.63981926       0.80344242      -0.42096412
O       -0.23451218      -1.20902896      -0.21389668
N        1.02842009       0.39886370       0.74307364
C        1.32314217       1.82068157       0.97213829
H        2.22757959       2.15356779       0.42143041
H        0.50286376       2.40980577       0.61861992
C        1.55432022       2.04031110       2.42761683
N        0.85802370       2.87617326       3.12087321
C        2.66873002       1.30845344       3.09287858
H        3.64458156       1.65338945       2.75107098
C        1.86370265      -0.53330588       1.39227402
H        1.42465663      -1.52372324       1.27222645
N        2.62457538      -0.24082100       3.07565522
H        2.45256972      -0.53256774       4.04838181
C        2.39737320       0.43621236       4.36052990
H        3.23790884      -0.39289498       4.01559591
C        2.78715777       0.28907061       3.78268790
H        0.11382467       3.28565049       2.61235023
