5
Properties=species:S:1:pos:R:3 pbc="F F F"
C        0.00000000       0.00000000       0.00000000
H        0.25417849      -0.95635599       0.45702931
H        0.78316617       0.36287913      -0.66563410
N       -0.46503279       1.03710508       0.99411029
C       -1.43203795       0.29624510      -0.28566447
