10
Properties=species:S:1:pos:R:3 pbc="F F F"
C        0.00000000       0.00000000       0.00000000
H       -0.04989275      -0.69331211      -0.81346691
C       -0.65070486       1.17022836       0.37315816
C       -1.67063367       1.90431285      -0.35028040
N       -2.42788076       2.44213104      -0.99388558
O       -0.15462491       1.69312525       1.53822541
C        0.85248518       0.86829817       2.02555275
C        0.92268407      -0.17132127       1.13608003
H        1.27096343       1.17137480       2.96252656
O        1.72731078      -1.17887890       1.17483687
