5
Properties=species:S:1:pos:R:3 pbc="F F F"
C        0.00000000       0.00000000       0.00000000
H        0.85855085      -0.18269925      -0.67941946
H       -0.59854376      -0.93449903      -0.02358231
O       -0.76281512       1.06893301      -0.31303972
C       -1.40999866       0.88539875      -1.55221963
