13
Properties=species:S:1:pos:R:3 pbc="F F F"
C        0.00000000       0.00000000       0.00000000
O       -0.48327726      -0.67721748       0.90593511
C       -0.22965953       0.04046173      -1.53235674
H       -0.57017803      -0.87991166      -1.95880640
C        0.95984852       0.89365458      -1.90280282
H        1.69162130       0.75177348      -2.69808745
C       -0.39758611       1.63136983      -2.02788305
H       -1.01180315       2.04896045      -2.77007914
O        0.93881744       0.91347671       0.23039238
C        1.40096974       1.59407854      -0.93926328
N        0.24223673       2.28559184      -0.87744033
N       -0.32255310       2.30915356      -2.97860813
O       -1.60957968       2.23165965      -1.85280943
