18
Properties=species:S:1:pos:R:3 pbc="F F F"
C        0.00000000       0.00000000       0.00000000
H       -0.90330714      -0.45945397       0.34327471
C        0.97226048       0.88810748       0.55755979
H        0.98808944       1.33760703       1.46188223
N        1.93021154       1.01905298      -0.41304898
C        1.47081006       0.29016632      -1.37313914
O        1.99673092       0.09412122      -2.57890534
O        0.47387493      -0.31298050      -1.33416021
C        3.37849045       0.40278476      -2.77981687
H        3.56694746       0.11761361      -3.79375029
C        4.40439415       0.01574951      -1.68427026
H        5.29903030      -0.40979511      -2.08854389
C        3.92631841       1.34056425      -2.10523057
H        4.00295544      -0.45229238      -0.78544724
H        4.62749290       1.92477322      -2.70117784
C        3.39227676       2.07827950      -0.85100830
H        4.21667337       1.97027338      -0.08576041
O        2.40061021       2.61609793      -0.78582931
