5
Properties=species:S:1:pos:R:3 pbc="F F F"
C        0.00000000       0.00000000       0.00000000
H        0.77438003      -0.70739126      -0.21173717
C       -0.81832606       0.91361672      -0.69551790
C       -1.10203934       1.25071192      -1.97159469
H       -0.69728804       0.60768622      -2.78078794
