5
Properties=species:S:1:pos:R:3 pbc="F F F"
C        0.00000000       0.00000000       0.00000000
H        0.99987060       0.02793165       0.37997100
C       -1.11428225       0.11565260      -0.45727283
C       -2.51035571       0.18046528      -0.97387332
C       -3.48707795       0.33243853       0.27152437
