5
Properties=species:S:1:pos:R:3 pbc="F F F"
C        0.00000000       0.00000000       0.00000000
H        0.56679875       1.02989805       0.28661507
O        0.38907859      -1.03838980      -0.04963639
O       -0.30807725       1.43394673       0.09890950
C       -0.63713670      -1.40288365      -0.30144981
