5
Properties=species:S:1:pos:R:3 pbc="F F F"
C        0.00000000       0.00000000       0.00000000
H       -1.01848304      -0.10609454       0.42841068
H        0.50376934       0.79971462       0.50156987
H        0.52931142      -0.93757659       0.16993764
C       -0.08819443       0.29226866      -1.43794954
