18
Properties=species:S:1:pos:R:3 pbc="F F F"
C        0.00000000       0.00000000       0.00000000
H        0.25417849      -0.95635599       0.45702931
H        0.78316617       0.36287913      -0.66563410
N       -0.46503279       1.03710508       0.99411029
C       -1.43203795       0.29624510      -0.28566447
C       -0.02902514       2.44871640       0.59643126
H        1.06042194       2.45820189       0.62980974
H       -2.12060070      -0.15316182      -1.06078637
O       -1.71712196       1.01334405       0.53980231
C       -0.58803862       3.42712855       1.60157371
O       -0.67660332       3.32776141       2.86457872
C       -0.61669433       2.92023420      -0.68903112
H       -0.32245898       2.51449323      -1.67943454
O       -1.63774204       3.67385316      -0.63985008
N       -1.02888989       4.55838871       0.88463664
H       -1.40065122       5.36284208       1.32593882
C       -0.74086523       4.39469767      -0.52700961
H       -0.79569203       5.20666313      -1.22170746
