5
Properties=species:S:1:pos:R:3 pbc="F F F"
C        0.00000000       0.00000000       0.00000000
H       -0.66295201      -0.32688832      -0.80108553
C        0.30323121       1.60154498      -0.00132680
H       -0.29422632       2.19647336      -0.72327143
H        0.07284859       1.98225737       0.99370146
