5
Properties=species:S:1:pos:R:3 pbc="F F F"
C        0.00000000       0.00000000       0.00000000
H       -0.73478127       0.56195438       0.61351693
H       -0.44203722      -0.12079284      -0.96690828
C        0.21623544      -1.37204576       0.59230947
H       -0.40683639      -2.20165634       0.19781336
