5
Properties=species:S:1:pos:R:3 pbc="F F F"
C        0.00000000       0.00000000       0.00000000
H        0.49655816       0.94760042      -0.01956422
C       -0.69488156      -0.78733408      -0.97064030
H       -0.96307600      -0.57061785      -2.00466394
N       -0.88955247      -1.96795130      -0.43740052
