5
Properties=species:S:1:pos:R:3 pbc="F F F"
C        0.00000000       0.00000000       0.00000000
H       -0.97180921       0.41602752      -0.26572004
O        0.77136117       1.10128391       0.42458692
H        1.72087765       0.79838741       0.58820713
H        0.39488739      -0.49280667      -0.86377358
