5
Properties=species:S:1:pos:R:3 pbc="F F F"
C        0.00000000       0.00000000       0.00000000
H       -0.10838032       0.34493598       1.02828610
H        0.60771871      -0.88018203       0.02927225
C       -1.38376880      -0.28532484      -0.68459576
H       -1.38782632      -1.24964595      -1.14824188
