5
Properties=species:S:1:pos:R:3 pbc="F F F"
C        0.00000000       0.00000000       0.00000000
H        1.10277510      -0.08684848       0.09188990
O       -0.50651205      -0.74500036      -1.05854535
C       -0.33762425       1.51198459      -0.04909139
H       -1.44250131       1.57956076      -0.13142765
