20
Properties=species:S:1:pos:R:3 pbc="F F F"
C        0.00000000       0.00000000       0.00000000
H        0.80457407      -0.24910638      -0.65992868
N       -1.01540494       0.85671109      -0.23978646
C       -1.63948083       0.75264943       0.93008488
N       -0.17392258      -0.46453890       1.23403931
N       -2.77969766       1.46668959       1.18883264
O       -1.19919074      -0.07025361       1.79140592
C       -2.89422512       2.17584801       2.49423504
H       -2.05232716       2.85279703       2.63931036
H       -2.90909171       1.40066624       3.34357095
O       -3.86394167       3.01171017       2.33585882
C       -4.08052731       1.15802598       0.68142033
H       -4.10860491       1.18595767      -0.38784623
C       -4.97756577       0.27741283       1.40415204
H       -4.66307592      -0.14017770       2.31476378
C       -5.21613598       1.64075506       1.44290781
N       -4.19714308       2.11641049       1.20227396
H       -6.08867168       2.07204962       0.86882979
C       -5.90378809       0.74065053       1.51170802
C       -5.86662149       0.68466651       1.69512212
