5
Properties=species:S:1:pos:R:3 pbc="F F F"
C        0.00000000       0.00000000       0.00000000
H        0.27444279      -0.93757659      -0.48345688
H       -1.05538523       0.15772051      -0.07864808
C        0.63731802       0.15006162       1.42695653
H        1.27778900      -0.73252773       1.72315264
