19
Properties=species:S:1:pos:R:3 pbc="F F F"
C        0.00000000       0.00000000       0.00000000
C       -0.62701148      -0.46275407      -1.15100539
H       -0.29835746      -0.25841877       1.03744960
O        0.94856268       0.76389670      -0.17201622
C       -1.68045139      -1.39492369      -1.24807417
C       -2.61867905      -2.15882039      -1.46963537
C       -3.67341042      -2.99084806      -1.73828077
C       -4.60005569      -3.74232364      -1.94005311
H       -5.43149328      -4.41927290      -2.13639593
C       -5.68558216      -4.59864426      -2.21654224
C        0.04380655      -0.11586767      -2.43543959
H       -0.64194918       0.37813675      -3.15502143
O        1.23609829       0.61902040      -2.27271819
H        1.90312946       0.10484439      -2.61738062
O        0.45539021      -1.34686255      -2.93278170
C        1.91853821      -1.51506937      -2.70694447
H        2.15297413      -2.08855891      -1.83456326
C        2.03414011      -2.68014646      -2.32994246
F        2.51428199      -0.86529994      -0.72587430
