11
Properties=species:S:1:pos:R:3 pbc="F F F"
C        0.00000000       0.00000000       0.00000000
O       -0.11141789      -0.80594301      -0.97516191
C        0.46370500       1.22708702      -0.21939377
C        0.58061808       2.24493408       0.88984746
H       -0.20492285       3.04915953       0.77562785
O        1.40740204       2.21334791       1.77275705
H       -0.20387389      -0.37619579       1.04585433
C        0.88452816       1.80341864      -1.55012560
H        0.58776093       1.18034768      -2.34146070
C        1.07523537       2.44637537      -0.47163773
C        1.27152574       3.03129530       0.63842416
