5
Properties=species:S:1:pos:R:3 pbc="F F F"
C        0.00000000       0.00000000       0.00000000
O        0.14886422       1.31352806       0.64294767
O        0.83416235      -0.60980082      -0.54883087
C       -1.39915693       0.03837338       0.44920528
N       -2.40858126      -0.76278657       0.39172578
