11
Properties=species:S:1:pos:R:3 pbc="F F F"
C        0.00000000       0.00000000       0.00000000
H       -1.06125057       0.29583174      -0.13538815
H        0.01467689      -0.66452807       0.83850241
C        0.80058479       1.19544518       0.38739237
N        1.27179253       1.49576962       1.55009055
O        1.87317097       2.74447656       1.29091239
C        1.11845982       2.25024152      -0.46022692
H        0.91141129       2.42306519      -1.47499895
N        1.76476061       3.11629987       0.28027084
C        0.48310563      -0.71387869      -1.28820956
H       -0.07762733      -1.59786439      -1.36974144
