11
Properties=species:S:1:pos:R:3 pbc="F F F"
C        0.00000000       0.00000000       0.00000000
H        0.37298915       0.33860689      -0.94399351
C        0.00000000       0.46941239       1.32956767
C        0.38070133       1.65002966       1.75064707
H        0.25015473       1.86674595       2.81087875
C        1.00191998       2.74300075       0.91422635
H        1.22411776       3.59434795       1.55760431
H        0.26667821       3.11253834       0.16926950
C        2.20605993       2.32662439       0.18103081
C        3.20406961       1.90399873      -0.35698700
C        4.41251135       1.41461134      -1.03600597
