11
Properties=species:S:1:pos:R:3 pbc="F F F"
C        0.00000000       0.00000000       0.00000000
H       -0.66737896      -0.22664110      -0.77829200
C        0.79265380       0.24455135       0.90818143
C        1.69144404       0.49716383       1.93796849
C        1.76511741      -0.11132509       3.33982849
H        1.11293924      -0.94093555       3.68408036
O        3.09189463      -0.57018483       2.97705054
O        1.65742087       1.09257889       4.10397148
C        2.86887980      -0.48799765       1.64813805
O        3.51365089      -0.92298114       0.74749452
C        2.07280350       1.90555525       2.46093750
