17
Properties=species:S:1:pos:R:3 pbc="F F F"
C        0.00000000       0.00000000       0.00000000
H       -0.13872999       0.91637862      -0.74639350
O       -0.80499214      -0.71709895       0.33860874
O        0.81722510       1.07849467      -0.62377119
C       -0.05014262      -1.19501019       0.95411438
H        0.65984112      -1.37416458       1.34491682
C        1.39935040      -0.08827510       0.36949146
C        1.75889707      -1.67448902       1.94987965
C        2.83376598      -0.73495412       1.69605076
C        1.75889707      -2.77509403       2.79885960
H        2.14935613      -2.68981028       3.81294441
C        0.63819098      -3.72064924       2.53420639
H        0.78428364      -4.71249723       3.01064539
H       -0.28646994      -3.32952952       2.90424275
H        0.57116532      -3.90334845       1.44139898
N        3.91550922      -0.14954132       1.69131756
H        4.82990122       0.36619741       1.67130995
