19
Properties=species:S:1:pos:R:3 pbc="F F F"
C        0.00000000       0.00000000       0.00000000
H        1.02361643       0.02740956       0.23228785
C       -1.20761132      -0.09780233      -0.30758470
C       -2.53517294      -0.08588015      -0.64572132
C       -3.67799520      -0.11642223      -0.89456517
H       -4.70391560      -0.10728478      -1.11795425
C        2.59598875       0.18511763       0.70691490
H        2.42457891      -0.28292426       1.67627287
H        3.11403370      -0.52115357       0.05813938
C        3.36400127       1.54930294       0.82545781
H        4.34064341       1.57775664       0.34228078
H        3.47299457       1.87619126       1.85955822
O        1.86327338       0.56522787      -0.29933873
C        2.79373407       0.01785150      -1.02381206
C        2.21899462       2.15779185       0.01330101
C        1.05599618       1.93521440       0.95031327
H        3.55797386       0.73708177      -1.38539851
C        3.44301748      -1.09526682      -1.04922795
H        2.88658547      -0.25589478      -0.63216996
