12
Properties=species:S:1:pos:R:3 pbc="F F F"
C        0.00000000       0.00000000       0.00000000
H        0.46570504      -0.77448958       0.57287353
C        0.23791441       0.59146702      -1.28002405
H        0.94251621       0.34236065      -2.04577971
C       -1.03155363       0.89478707       0.35121423
N       -0.69752991       1.58310306      -1.41603994
O       -1.78352833       1.13649535       1.42126560
N       -1.26971352       1.64627481      -0.71997410
C       -1.52642798       0.41253626       2.62736702
H       -2.19713497       0.83012676       3.31893754
C       -0.89827782       0.20021014       1.52082109
C       -2.01945400       0.99764186       2.19012237
