17
Properties=species:S:1:pos:R:3 pbc="F F F"
C        0.00000000       0.00000000       0.00000000
H       -0.66737896      -0.22664110      -0.77829200
C        0.80554247       0.24852778       0.92294860
C        1.67846823       0.49387082       1.92310154
C        2.42429423       0.67812371       2.90915084
C        3.30352783       0.86946791       4.07157660
H        3.82151651      -0.04361808       4.43221617
H        4.09867764       1.60330367       3.82394481
O        2.51088762       1.36293650       5.04661942
N        3.26409435       1.54907405       6.24783993
H        2.54939008       1.95871043       6.86614037
H        3.97863078       2.21640444       6.09225321
C       -1.75960040      -0.51923537      -1.92438912
H       -1.23162103      -1.30922675      -2.49819279
H       -2.25304174       0.28420705      -1.33864582
O       -0.65390170      -1.09494400      -1.83225560
O       -1.81356549       0.35550410      -0.89754093
