7
Properties=species:S:1:pos:R:3 pbc="F F F"
C        0.00000000       0.00000000       0.00000000
H        0.36721066       0.76237535       0.71835876
H       -0.02632898       0.52044070      -1.00267017
O       -1.11358345      -0.51303971       0.40102467
C       -1.80117059      -1.47696114      -0.40083399
H       -1.19305563      -2.42829800      -0.44615105
O       -2.86209488      -1.27159989      -0.73123562
