24
Properties=species:S:1:pos:R:3 pbc="F F F"
C        0.00000000       0.00000000       0.00000000
H        1.02073932       0.32089040      -0.00446628
C       -1.17013621       0.63097668       0.33098030
O       -2.16579747      -0.30997300       0.34405050
N       -1.58643186       1.94450474       0.84307414
H       -0.74225855       2.56757569       0.88373578
N       -0.31657526      -1.30089676      -0.44220585
C       -1.57212889      -1.41702712      -0.09285611
H       -2.19110179      -2.33011317      -0.21632949
H       -1.91333234       1.81303692       1.78962135
C       -2.60089993       2.50526905       0.04026890
C       -3.42653799       3.04377842      -0.66146362
C       -4.44435215       3.69800043      -1.49629617
H       -5.41751766       3.56132603      -1.12647390
C       -3.19591641       3.75324345      -1.72269261
O       -4.36056232       3.63840747      -2.86243153
C       -3.04157877       4.02485418      -3.32442641
C       -3.75156116       3.07010269      -3.30267406
C       -1.90502083       3.86356449      -2.27903438
H       -1.37008643       4.80114126      -2.12772489
C       -1.33491433       2.95566130      -3.37063336
H       -0.46834689       3.35409164      -3.89828253
H       -1.15561903       1.89821637      -3.08469176
O       -2.44489717       3.13659215      -4.18751812
