16
Properties=species:S:1:pos:R:3 pbc="F F F"
C        0.00000000       0.00000000       0.00000000
H        1.10277510      -0.08684848       0.09188990
O       -0.51379997      -0.75571978      -1.07377625
H       -0.24507920       1.09296227      -0.14922760
O       -0.57744193      -0.60971707       1.08245289
C        0.25640869      -0.30318916      -2.19041967
H        1.31288493      -0.34973252      -2.02735233
C       -0.45613700      -0.44178110      -3.44563627
O       -0.30031544       0.87026983      -2.71465063
H        0.11461437      -0.41332737      -4.37382412
C       -1.81357169      -1.17949629      -3.57071638
H       -1.60267472      -2.23376966      -3.74996328
H       -2.31372118      -1.13469291      -2.67141533
H       -1.55265427      -0.51509219       0.94065464
C       -2.63714194      -0.64947444      -4.63997173
N       -3.24897408      -0.24780542      -5.52700186
