14
Properties=species:S:1:pos:R:3 pbc="F F F"
C        0.00000000       0.00000000       0.00000000
H       -0.63981926       0.80344242      -0.42096412
O       -0.43172085      -1.27291954      -0.35410643
O        0.93775177       0.12982409       0.65289098
C       -1.82094598      -1.58158302      -0.21382646
H       -2.41639233      -0.80528206      -0.73813528
H       -1.95611095      -2.48240638      -0.77520591
C       -2.31161523      -1.72590983       1.20691681
H       -1.76553321      -1.23310316       1.98398519
C       -3.47591257      -2.41949296       1.40754807
H       -3.87657022      -2.50321174       2.39616537
C       -4.07722759      -2.96434903       0.30371368
H       -5.03100443      -3.48312950       0.40002334
O       -3.60320497      -2.95312309      -0.89598417
