14
Properties=species:S:1:pos:R:3 pbc="F F F"
C        0.00000000       0.00000000       0.00000000
H        0.85855085      -0.18269925      -0.67941946
H       -0.59854376      -0.93449903      -0.02358231
O       -0.76281512       1.06893301      -0.31303972
H       -0.78867233       1.63374019       0.42535305
O        0.52508736       0.18353425       1.29564536
C        1.45694447      -0.84843624       1.70695722
H        2.26974940      -0.93215501       1.01613235
C        1.70593643      -0.83599192       3.11505747
N        0.87047231      -2.02959418       2.58608580
H        2.66038370      -0.95452696       3.53634048
C        0.14465481      -1.16510081       3.61891580
H       -0.04234307      -1.54890978       4.57819796
C        0.29399467      -0.76227170       2.48775482
