12
Properties=species:S:1:pos:R:3 pbc="F F F"
C        0.00000000       0.00000000       0.00000000
H        0.91745758       0.45945397      -0.30343503
C       -0.97954947      -0.78538948      -0.59644318
N       -0.63980758       0.11032103       1.25162840
H       -0.27174759       0.54201865       2.03843760
N       -1.04863691      -1.27456689      -1.72286737
C       -1.78029335      -0.64397806       1.16663861
C       -2.73006964      -0.68026310       2.18089032
N       -3.52786684      -0.64919895       3.06330395
N       -2.05821848      -1.28650427       0.01233530
C       -0.17451715      -1.04578137      -2.77912045
N        0.53832757      -0.79323846      -3.67185402
