23
Properties=species:S:1:pos:R:3 pbc="F F F"
C        0.00000000       0.00000000       0.00000000
C        0.70749825       0.89603508      -0.98826367
H        0.63706791      -0.52556229       0.68031478
O        1.85494137       1.19317830      -1.09399426
C       -1.03480220      -0.60801154      -0.84876633
H       -1.30024946      -1.63285804      -1.00409412
C       -1.49412942       0.54898483      -1.46721303
N       -2.40387249       0.72210580      -2.42183089
O       -2.75275564       2.09557056      -2.72903323
O       -0.25595105       1.37454510      -1.83661032
C       -1.75894868       2.51842594      -3.63547635
H       -1.97218227       3.55089283      -3.91232133
O       -1.82849729       1.64995909      -4.76941919
C       -2.78804803       2.03107548      -3.78002000
C       -3.48778653       3.09509373      -4.51427412
C       -4.12686872       3.95531893      -5.11800051
H       -4.69872236       4.68965769      -5.60403490
C       -0.52062726       1.30772889      -4.19213915
H        0.10681182       0.71860468      -4.82786894
C       -0.26598746       2.45346546      -3.41076565
O        0.46553308       2.09940386      -4.36051130
O        0.24891096       2.80260015      -2.25790691
N       -1.34684670       0.22878551       0.25643635
