23
Properties=species:S:1:pos:R:3 pbc="F F F"
C        0.00000000       0.00000000       0.00000000
C       -1.52293849       0.09314544      -0.11349050
H       -1.89047074      -0.27639204      -1.09352171
H        0.66163462       0.76152319      -0.35668111
O       -1.99783754      -0.79496205       0.90171093
C       -1.07478619      -1.83384347       0.92999136
H       -1.21913755      -2.41805243       1.83881569
N       -0.19616669      -2.06101298       0.07038647
O       -2.03375864       1.36606503       0.11198016
C       -0.11043182      -1.16622591      -1.01593947
N        0.72073591      -1.49936974      -1.88810587
H        0.74052995      -0.85789400      -2.64190745
H       -3.05725336       1.33917761      -0.00042545
C        0.21431881      -0.87474650       1.21201646
H        1.16852570      -1.12850904       1.67374456
C       -1.67865980       1.90339756       1.43337214
H       -0.61712384       1.94994092       1.55936646
C       -2.46934557       1.44064355       2.47873020
C       -3.14902472       0.97641748       3.44590592
H       -3.72819018       0.57067657       4.30149984
H       -2.11806297       0.57067657       3.51366758
O       -3.77115774       0.64349967       2.20211554
H       -4.72319746       1.01999807       2.31511354
