31
Properties=species:S:1:pos:R:3 pbc="F F F"
C        0.00000000       0.00000000       0.00000000
C       -0.72676057      -0.70361626       0.89400315
H       -1.30083013      -1.27172136       1.62598681
O       -1.37206399      -1.34657300       1.77892625
C       -0.98957038      -0.93908685       0.83822334
C       -1.85833406      -1.86430216       2.87423992
C       -1.91305983      -1.90454972       2.87722635
C       -1.70338488      -1.75645065       2.72865915
C       -1.01563656      -0.88234693       0.65182722
H       -1.99452186      -0.92147070       2.42074680
C       -2.21055293      -0.13273185       1.44908834
C       -0.85980207      -1.37265337       2.83404541
H       -1.52974534      -0.66807270       3.12897134
H       -3.04769754       0.05152106       0.53928679
H       -3.17179680       0.06642677       0.74166697
C       -2.05789471      -0.18575668       1.38749576
C       -1.52953100      -2.37902975       2.43499327
C       -2.89857078      -1.49736464       2.98212075
C       -3.10552478      -1.77487469       3.08397484
H       -1.64891779      -1.48648667       2.95477724
C       -2.97882891      -1.46726823       3.30287075
C       -1.69279373      -1.68930447       2.89416885
C       -2.69085693      -0.55859470       3.34136486
C       -0.68886942      -0.69976610       2.32936716
C       -1.61211789      -2.21023607       2.90834212
H       -0.76059723      -0.39762887       1.15989411
C       -0.99547386      -1.19956470       0.46001458
H       -0.47833815      -0.82665569       2.37309885
H       -0.84681368      -1.57787001       3.57608128
C       -0.90168869      -1.27754557       2.32272863
C       -0.87928915      -1.21247864       2.33933830
