31
Properties=species:S:1:pos:R:3 pbc="F F F"
C        0.00000000       0.00000000       0.00000000
H        0.56776416      -0.60013586      -0.71104151
C        0.96171260      -0.93794996      -1.12154150
O       -0.19472277       0.04282087       0.07516390
C        1.30202341      -1.13795424      -1.38075340
C        1.34921730      -1.25321794      -1.50282025
H        0.95415831       0.26008946       0.07864887
H        1.14188826      -1.30109179      -1.51300240
H       -0.46819592       0.34323096       0.43479520
H       -0.59891760       0.26132512       0.37193352
H       -0.56880391       0.28889918       0.38162786
H       -0.39438373       0.42256540       0.43108362
C        0.06400836      -0.27662265      -0.25617474
H        0.06497067       0.03251684      -0.76626098
H        0.49881077      -1.80179000      -0.58705890
H       -0.22026390       0.31806827      -0.71448952
C        0.19749695       1.17090440      -1.58755612
C        0.25016108      -0.53476781       0.13136494
C        0.16668653       1.17090440      -1.60164154
C        0.14534998       1.18761981      -1.59443569
C        0.86841553       0.76165056      -0.23395789
C        0.16668653       1.17090440      -1.60164154
C        0.92396384       0.65654242      -0.27965987
C        0.96194404       0.54887247      -0.31198174
C       -1.09254777       1.26714814      -0.76415986
C        0.53754485      -0.38117254      -1.45589828
C       -0.94935650       0.19476922      -1.77152324
C       -0.97216904       1.10703421      -0.73094177
C       -0.98450714       0.17243953      -1.74348092
C       -0.90918672       0.15015395      -1.79212070
C        0.10810748       1.00947142      -1.75286913
