5
Properties=species:S:1:pos:R:3 pbc="F F F"
C        0.00000000       0.00000000       0.00000000
N       -0.69371152      -0.01000768       0.91714954
C        0.66510004       0.00948554      -0.86351091
C        1.32999861       0.03793927      -1.72676039
N        0.63649720       0.00791927      -0.80988866
