31
Properties=species:S:1:pos:R:3 pbc="F F F"
C        0.00000000       0.00000000       0.00000000
C        0.75438040      -0.94507349      -0.04295642
H        0.29635155      -0.32729286      -0.00479060
H        0.82763606      -0.88463598      -0.00711526
C        0.65247440      -0.84722853      -0.03715363
C        1.94017458      -0.37955034      -0.35359088
C        1.64335799      -0.78526878       0.96119386
C        1.94017458      -0.37955034      -0.35359088
C        1.63886380      -0.78370398       0.99079299
C        1.62671924      -1.89219356      -0.10905767
C        1.94995952      -0.42040992      -0.37830648
C        1.65872037      -0.89586198       0.97942996
N        1.30670965      -0.88247454       0.28459278
C        1.87570000      -0.74126506       0.69566882
O       -0.31031159       1.22837341       0.08777355
C        1.80157089      -0.82939297       0.80608696
C       -0.59746200      -1.14243400      -0.04452331
C        1.75755048      -0.82939297       0.85607988
H       -0.23505750      -1.13573325       0.63482785
O        0.92988682      -1.59995937       0.83557045
H       -1.36849332      -1.32501626       0.59017110
C       -0.36736861      -1.16507709      -0.14329883
C       -0.02066007       0.98234576      -0.47187838
C       -0.01328850       0.96531260      -0.50605768
C        0.32090607      -0.23527505      -1.01477289
C        0.34101647      -0.19809182      -1.01615286
C       -0.21641953       0.90386391       0.86550069
C       -0.37616092      -0.48273814      -0.05454423
C        0.19543296      -1.66039324      -0.43910968
C        1.78535914      -0.78370398       0.85118419
H        0.66877484      -1.09388804      -0.22020504
