7
Properties=species:S:1:pos:R:3 pbc="F F F"
C        0.00000000       0.00000000       0.00000000
H       -1.01848304      -0.10609454       0.42841068
H        1.15111816       0.11947583      -0.47238904
H        1.15111816       0.11947583      -0.47238904
H        1.51947570       0.15770806      -0.62355345
C       -2.12872124      -0.22174713       0.89541686
C       -2.15170050      -0.22174713       0.83650595
