31
Properties=species:S:1:pos:R:3 pbc="F F F"
C        0.00000000       0.00000000       0.00000000
O       -0.20475674      -0.88820010       0.88434947
C        0.16150212       0.81845951      -0.79154295
H       -0.06895481      -0.34018791       0.36076522
H       -0.11667778      -0.52885514       0.54735589
C        0.22420640       1.59425044      -2.22371411
O        0.11232466       1.02909088      -1.51931584
H        0.31246698       1.22325897      -1.12343180
C       -0.30034459       0.82334852      -2.68115616
C       -0.31625411       0.75928009      -2.66212869
C        0.44755676       1.97817075      -2.32614040
C        0.55687505       1.97817075      -2.27146006
C        0.32705665       0.71694005       0.00428176
C        0.30286843       0.67701364      -0.16734207
C        0.23919740       0.71696568      -0.31558001
C       -0.86040264       1.43731785      -2.26177883
C        0.03735769       0.43452013      -0.16682082
C        0.10419402       0.38067025      -0.22389567
C       -0.38489559      -1.76359582       1.72941232
C       -0.30019131      -1.68498886       1.56149006
C       -0.26191914      -1.80749822       1.69953203
C        0.07635881       2.15779209      -1.55980289
C       -0.17205945      -1.83476615       1.81807435
C        0.36848289       0.96972466      -1.90047562
H       -0.03572302      -0.33085698       0.38066679
H        0.49044180       1.94127393      -2.08096957
C        0.16144074       1.27731681      -2.64113164
H        0.54002917       1.99432564      -2.00079751
H        0.06299751       2.05756402      -0.79647082
C        0.09675603       2.15849614      -2.08207250
H        0.08692931       2.49170113      -0.11305863
