31
Properties=species:S:1:pos:R:3 pbc="F F F"
C        0.00000000       0.00000000       0.00000000
O       -0.10615405      -0.76786703      -0.92909127
C        0.05425354       0.70777464       0.77369958
C        1.17918825       0.58447558       1.39290702
C        0.72648108      -0.02949899       0.40265948
O       -0.79021281       0.36930051      -0.11242157
O        0.90866816      -0.17822909       0.38760155
O        1.28437150       1.31666493       2.24715185
C        0.61124170      -0.20265478      -0.04660779
H        0.59546512       0.56333107       1.95408440
N        0.62852615       1.01801896       2.57006884
C        1.76474607       0.42675507       0.51134837
H        0.64777386       0.98306632       0.58476335
C        0.46548387       0.28920329       3.18731499
H        1.65040720       0.04862839       3.14062953
C        0.46416137       0.35429680       3.19986248
C       -0.05790156       0.68663013       0.84863961
C        0.38808537      -0.09858942       3.01792336
C       -0.35655034      -0.24661291       1.96658158
C       -1.23074293       0.01523903      -1.22735310
C        0.05393028       0.79860610       1.03785026
H       -1.92126155       0.51899159      -0.25671417
H        0.01235569      -0.50620735      -0.18637383
C        0.85209876      -1.48511910      -0.16064580
C        1.14762223      -0.01384455       0.17810822
C        1.14984119      -0.04198128       0.13537076
C        1.39827561       0.72864205       0.98399872
C        0.20786196       1.35413027       3.30185962
C        1.33336973       0.64064789       0.92334783
C        1.38647699       0.67460698      -0.45410383
C        1.56851864       0.85617006      -0.68548423
