31
Properties=species:S:1:pos:R:3 pbc="F F F"
C        0.00000000       0.00000000       0.00000000
H        0.46570504      -0.77448958       0.57287353
C        0.37044892      -0.64420170       0.48976687
H        0.50003678      -0.14020848      -0.20744023
C       -0.63640577       0.19826564       0.24734819
C        0.22489774      -0.83944929       0.81640518
C        0.37759545      -0.78701538       0.66132224
C        1.73263884      -0.45915774      -0.71326816
H        1.50262809      -0.83736622      -0.08322579
C        1.91953480      -0.22339672      -1.13836980
C        0.51874822      -0.98299497       0.73827988
C        1.71660209       0.07914490      -1.51092291
C        0.58424246      -0.02742225      -0.33433831
C        1.59799647      -1.25921881       0.26327336
C        1.82003760      -1.81535006       0.66222548
C        1.82604396      -1.82930279       0.64090312
C        0.57440323      -0.91590065       0.80914736
C        1.78065324      -1.86934173       0.60279697
C        0.67011327      -1.69258761       1.45571685
C       -0.54921293       0.13298953       0.13547060
C       -0.64182407       0.09423043       0.34509102
H        1.05133116      -0.72761244       0.07513404
C       -0.58542514       0.11361790       0.18391523
C       -0.64969921       0.07407349       0.28877443
C        1.92268395      -1.90162182       1.47215962
N        2.84346700       0.35880822      -1.49876666
C        2.10393047      -1.90632105       1.42434371
H        1.17263305       0.91765124       0.13972029
H        1.17561007       0.93065852       0.10890487
H        1.16967058       0.94337559       0.08865637
N        2.90033054       0.47584409      -1.54086292
