31
Properties=species:S:1:pos:R:3 pbc="F F F"
C        0.00000000       0.00000000       0.00000000
H       -0.27013281      -0.28715521       1.08030975
O       -0.20905934      -0.22223322       0.83606601
H        0.17453475       0.19226921      -0.72489321
C        0.16848981       0.03495800      -0.08928502
O        0.35680890       0.50938845      -1.94107997
C        0.53804934       0.86645967      -3.31386900
C        0.51399612       0.86645967      -3.31683087
C        0.52537519       0.84148967      -3.21787000
C        0.52438611       0.18112683      -0.58010232
C        0.32785007      -0.10805526       0.52025664
C        0.26093078      -0.10339907       0.50718415
C        0.13759659      -0.07990402       0.32993221
N       -0.59245348       0.15323824      -0.63932920
O       -0.72591460       0.58670527      -2.60034537
N       -0.52282768       0.15323824      -0.59130466
C       -0.49883491       0.25314128      -0.85006690
C        0.60756195       0.98648417      -3.06891036
C        0.81725657       0.28471932      -2.94825983
C        0.64472067       0.52009231      -3.13686037
C        0.65445542       0.91443479      -3.27982664
N       -1.49856734      -0.54655510      -1.68316197
C       -1.55519128      -0.62320501      -1.68311346
C       -0.16998541       1.92450690      -2.66140056
C       -1.10690737       1.03611219      -3.56459475
H        1.51845551       2.50251174      -3.19258237
H        1.51845551       2.50251174      -3.19258237
O       -0.50694007       2.76036906      -1.73841918
H        1.01129901       1.59635305      -3.25637245
H        0.84492296       1.50716579      -3.05208588
H       -0.21719861       2.51745796      -3.15035868
