31
Properties=species:S:1:pos:R:3 pbc="F F F"
C        0.00000000       0.00000000       0.00000000
H        0.77438003      -0.70739126      -0.21173717
C        0.64411056      -0.58839095      -0.17611785
H        1.27374673      -1.16355968      -0.34827799
C        2.06260109      -1.88417315      -0.56397283
H        1.20137477      -1.09744835      -0.32848948
H        2.51130676      -2.29406309      -0.68666160
H        3.28568697      -3.00145435      -0.89839876
H        3.28568697      -3.00145435      -0.89839876
H        2.33981586      -2.53402734      -0.21050218
C        3.83849239      -2.75234795      -0.01678020
C        3.89428163      -2.58530855       0.11102390
C        2.54977274      -3.79144573      -1.15616441
C        4.10061216      -3.69476652      -0.88770109
C        2.33981848      -3.67141867      -1.36635089
C        4.10597706      -3.68047714      -1.00304663
H        2.11202836      -2.82309747      -1.13252139
C        3.00961757      -3.13183904      -0.59669358
H        1.22391820      -1.13438869      -0.32379794
H        1.17456841      -1.13640308      -0.28193414
C       -0.15709573       0.02249169       0.12370671
C        1.85579824      -1.43603694      -0.68404496
C       -0.12711453       0.08959359       0.04325615
H        1.24469662      -1.14214587      -0.31923971
C        0.25800347      -0.36309296      -0.03223243
C        2.44330549      -4.03762531      -1.41408277
C        0.19429886      -0.43514788      -0.07112220
C        0.16692877      -0.47246820      -0.08393684
C        1.70831716      -2.31573129      -0.13971655
C        2.63185835      -3.77945352      -1.18961191
H        1.42471886      -4.06125641      -0.68292618
