7
Properties=species:S:1:pos:R:3 pbc="F F F"
C        0.00000000       0.00000000       0.00000000
H        0.32641929      -0.42366105      -0.97265661
H       -0.37716016       0.47709572       1.09207535
H       -0.37716016       0.47709572       1.09207535
H       -0.49785134       0.62976629       1.44153929
C        0.68224573      -0.88548970      -2.03293991
C        0.73740071      -0.88548970      -2.01280451
