5
Properties=species:S:1:pos:R:3 pbc="F F F"
C        0.00000000       0.00000000       0.00000000
N       -1.38358474       0.08462234      -0.10310575
C       -1.20162916       0.05263313      -0.13196929
H        0.69269943       0.10283128       0.36564079
H        1.20273805      -0.05263313       0.12144898
