31
Properties=species:S:1:pos:R:3 pbc="F F F"
C        0.00000000       0.00000000       0.00000000
N        0.64190245       0.81295902      -0.89663661
H        0.58070827       0.71801496      -0.78187674
O        1.00417423       0.05877000       0.16626436
O        1.01923764       0.16170371       0.24803036
O        1.26788568      -0.16798878      -0.14400280
H        1.06477392       1.58927679      -1.78038383
O       -0.92081606       0.92237580      -1.19243586
H        1.05479848       1.57210839      -1.79980218
H        1.08017564       1.58927679      -1.77284777
C        1.29334438       0.57034028      -2.50317192
C        0.03363979       1.46788931      -2.51177025
O       -0.94019699       0.75899875      -1.16925907
H        0.91592324       1.31601310      -1.46930504
H        1.01409388       2.34273314      -1.96886003
C        0.91462404       3.53291535      -2.45637488
C        0.90618163       3.32260656      -2.38491583
O        0.90199935       1.62751961      -2.02061439
C       -0.14880598       2.70245957      -2.33101964
C        2.22367764       2.72360301      -2.03773689
C        2.19632721       2.67054677      -2.05696058
C        0.40142667       2.01584482      -1.12869191
O        2.08288455      -0.64111710      -3.00306702
O        1.14446855       1.81810665      -1.81346941
H       -0.51060772       3.26618075      -1.77584600
C        1.58556437       2.80317879      -1.27975738
C        1.73022103       3.03413630      -1.14835882
C        0.60889208       2.85795379      -1.28171062
N        1.38558114       2.20584679      -1.55375838
C        1.87342262       3.04197407      -1.34796143
C        0.53715920       3.06031919      -1.03585291
