10
Properties=species:S:1:pos:R:3 pbc="F F F"
C        0.00000000       0.00000000       0.00000000
H       -0.92019141      -0.46804190       0.34969106
H        0.41818005       0.63143963       0.78390610
H       -0.22164436       0.60458052      -0.85454994
C        0.94895631      -1.03197050      -0.37015805
N        1.67032838      -1.82196188      -0.66619051
C        2.48962784      -2.72582579      -1.01928699
C        3.34358311      -3.59809303      -1.36972809
C        4.18926764      -4.48629332      -1.69960296
H        4.90177345      -5.23461962      -1.97752905
