29
Properties=species:S:1:pos:R:3 pbc="F F F"
C        0.00000000       0.00000000       0.00000000
H       -0.17896062      -0.77630097       0.77293539
H       -0.74363703       0.77575725       0.18249369
C        1.37541461       0.57633162       0.23701076
H        2.19757366      -0.08564669      -0.03490572
C        1.66283488       1.72034693       0.85143489
H        2.73794270       1.94103956       1.01737797
O        0.86209458       2.59261417       1.31063354
C       -0.20106865      -0.61628383      -1.34158993
C       -0.39695680      -1.12932348      -2.50885892
C       -0.59736484      -1.67942929      -3.70306110
H        0.18418068      -1.50002193      -4.44136906
C       -1.72955203      -2.59648156      -4.09962749
H       -1.58487618      -3.08158493      -5.06494761
H       -1.98756218      -3.31773758      -3.35255337
O        0.69136149      -1.13330054      -2.04782009
C       -1.61157346      -0.81023133      -1.78086066
C       -2.69550729      -0.62008232      -1.10778606
H       -3.55318260      -0.42199051      -0.46493942
O       -2.31103659       0.47790807      -1.66518903
C       -2.64076638      -1.32073247      -4.18359089
H       -3.07060099      -1.14132512      -5.16906261
H       -3.41082907      -1.23544884      -3.41689062
N       -1.45184028      -0.45757198      -3.93558526
H       -1.19655013       0.15582079      -4.69629288
C       -0.56346470       2.62994337       1.20439982
H       -0.85494757       3.61228919       1.57606339
H       -0.94852519       1.88130450       1.89676356
C       -1.14410329       2.40441775      -0.19306028
