12
Properties=species:S:1:pos:R:3 pbc="F F F"
C        0.00000000       0.00000000       0.00000000
H       -0.75859445      -0.02845373       0.78219187
H       -0.23643626      -0.70627117      -0.79585057
H        0.97367489      -0.23527505       0.42976981
O        0.03376553       1.31934917      -0.55052316
C       -0.25673607       1.49507344      -1.85713267
N       -0.21698257       2.70370817      -2.36083961
C       -0.55873907       2.54904819      -3.67848206
H       -0.58732498       3.39627671      -4.33138800
C       -0.80987126       1.23020744      -3.95141029
H       -1.08034754       0.73740077      -4.86184072
N       -0.61994183       0.54746777      -2.75562954
