12
Properties=species:S:1:pos:R:3 pbc="F F F"
C        0.00000000       0.00000000       0.00000000
H       -0.46332881       0.46804190       0.86854041
H        0.66601729       0.67902291      -0.49015117
C       -0.94365013      -0.84239239      -0.86069572
H       -0.76358652      -0.77603388      -1.93366957
H       -2.01064205      -0.85187793      -0.63812506
C        0.00279355      -1.73842740      -0.09815842
C        0.18658826      -3.17163849      -0.21908477
H        1.15437508      -3.62247705       0.00053379
H       -0.46686295      -3.73974347      -0.88117039
O       -0.54187381      -2.65859842       0.88118869
C        0.59577644      -1.33726764       0.36995065
