28
Properties=species:S:1:pos:R:3 pbc="F F F"
C        0.00000000       0.00000000       0.00000000
H       -0.65751791      -0.00948554       0.86929828
H        1.03461850       0.14188111       0.31230384
H       -0.28952116       0.81466258      -0.66377831
C       -0.12533696      -1.32942903      -0.74686462
O        0.72700703      -1.36675823      -1.89447713
H        0.42355967      -0.67912722      -2.47549605
C        0.26668870      -2.57301283       0.09117639
H        0.19283152      -3.44753313      -0.55524337
H        1.32607412      -2.48616433       0.41095623
N       -0.67005140      -2.78969431       1.20314097
C       -0.63825595      -1.93116355       2.11111259
H       -1.30763555      -1.96013939       2.99609327
O        0.22108531      -0.81472242       2.16759419
C        0.98006034      -0.80193001       3.42643929
H        0.29273063      -0.77347630       4.27193785
H        1.58401275       0.10535502       3.41322422
C        1.86040032      -2.07695985       3.46884298
H        1.18353438      -2.95586038       3.43030024
H        2.52273703      -1.04143393       3.51237607
O        1.95530939      -3.22302723       3.47341442
C        2.82329559      -0.99323463       3.49834418
C       -1.44221592      -1.46610940      -1.28727794
C       -2.58461118      -1.56234694      -1.73289013
H       -3.55982685      -1.64450085      -2.11329079
N       -2.58970022      -1.43176103      -2.51140571
O       -3.21950722      -1.09496379      -0.92334765
O       -1.87758827      -2.21695876      -1.14255011
