24
Properties=species:S:1:pos:R:3 pbc="F F F"
C        0.00000000       0.00000000       0.00000000
H       -0.68818814      -0.12530847      -0.86185503
H       -0.21192932      -0.84231949       0.69114619
O        1.34617543      -0.01227028      -0.41923669
H        1.52260816      -0.85511112      -0.86576819
C       -0.34374747       1.26822138       0.70253122
C        0.40438995       2.35134292       1.00192523
H        1.42901874       2.56408262       0.77881742
N       -0.46790239       3.20766330       1.70471954
C       -1.61867976       2.58417487       1.76014936
H       -2.55966449       2.89291644       2.21547937
O       -1.59295475       1.41361582       1.17258799
C       -0.17360806       4.52519083       2.23387957
H        0.62281471       4.43990707       2.97316074
H        0.17715275       5.17199755       1.42969871
H       -1.05804539       4.95868969       2.70072937
C        1.52717602       0.99123210      -1.39305389
H        0.83898789       0.86592364      -2.25490904
H        1.32336831       1.99160266      -0.95736992
C        2.89519024       1.02908337      -1.87222266
C        4.07451296       1.06171381      -2.28529930
C        5.32931232       1.09643257      -2.72481275
C        6.52750397       1.12958503      -3.14449859
H        7.53700447       1.15751672      -3.49809217
