17
Properties=species:S:1:pos:R:3 pbc="F F F"
C        0.00000000       0.00000000       0.00000000
H       -0.26073688      -0.27716723       1.04273379
H       -0.58635110      -0.66197830      -0.63724130
C        1.45906079      -0.32593143      -0.21215129
H        2.15669823       0.32390046       0.27356479
C        1.82842243      -1.44963288      -0.86281663
H        2.87944174      -1.72180605      -0.95966226
O        1.01716661      -2.28549504      -1.41716051
C       -0.38808399       1.38134682      -0.20921251
C       -0.68514258       2.54028535      -0.39009011
C       -1.04982233       3.94825172      -0.60348439
H       -0.19850171       4.53246069      -0.95284438
H       -1.83974540       4.03353548      -1.34970665
H       -1.41295290       4.40736246       0.33962351
C       -0.40054440      -2.09935760      -1.39855003
H       -0.68864202      -1.91995025      -2.43436480
H       -0.82433844      -3.02908921      -1.08090711
