7
Properties=species:S:1:pos:R:3 pbc="F F F"
C        0.00000000       0.00000000       0.00000000
H       -0.62829101       0.78896600      -0.41337919
H       -0.38041556      -0.98234576      -0.27996442
H        0.01901762       0.08528364       1.08649170
H        1.01757610       0.10418293      -0.37654221
C        0.22325099       0.66072595      -0.53719568
H       -1.24767339      -1.43830705      -0.42160690
