27
Properties=species:S:1:pos:R:3 pbc="F F F"
C        0.00000000       0.00000000       0.00000000
H        0.74694258      -0.61588109       0.50086582
H       -0.35398620       0.78896600       0.66357046
H        0.44394740       0.45083857      -0.88755536
H       -0.83852255      -0.63143963      -0.29370588
C        0.20486885       0.13873065       0.81113333
O        1.38962817      -0.58113194      -0.50910729
O       -0.20267609      -0.07731879      -1.79078662
C        1.76644826      -1.74262536      -0.77638686
C        1.74142766      -2.81638455      -0.06188446
H        1.15830851      -2.75124359       0.83289385
C        1.58311677      -3.02422190      -1.44746733
H        0.72765487      -3.29140115      -2.03201818
C        1.53680456      -3.89362502      -2.50524426
O        1.23066258      -5.05256367      -2.67028260
O        2.60387826      -3.26982689      -2.79701209
H        2.19192600      -3.76116705      -0.43139282
C       -0.40165678      -0.83789778      -0.29882002
C        1.93465114      -6.20067692      -3.20762277
H        1.79198909      -6.19119120      -4.28820419
C        1.26343083      -7.41216850      -2.60608339
H        0.16110981      -7.36388540      -2.72714615
O        1.76328540      -8.27296162      -1.99120188
C        3.39411616      -6.16125917      -2.82225847
H        3.89701700      -5.30991173      -3.28095007
H        3.89292145      -7.08901882      -3.10253525
H        3.47012830      -6.07597542      -1.73826206
