25
Properties=species:S:1:pos:R:3 pbc="F F F"
C        0.00000000       0.00000000       0.00000000
H        0.84308147      -0.17940737      -0.66717768
H       -0.63311261      -0.88571131       0.05275489
H       -0.58752006       0.83937204      -0.37198663
H        0.35828897       0.23095807       0.98142070
C        0.19943136      -0.68340057      -0.36951134
O       -1.53472614      -0.13803083       0.12799564
O        0.73895544       1.05015731      -0.86283344
O       -0.08651507      -0.25736642      -0.70161915
C        0.10003439      -0.15855438      -0.09118527
C        0.48080906      -1.08890676      -0.96125042
C        0.43153185      -1.17982960      -1.03859508
C        0.43934512      -1.16007710      -1.05739975
C        0.54769039      -1.74499702      -2.17946434
C        0.67326790      -2.36879516      -3.27855730
F        0.79551053      -3.07904768      -4.34846210
C        1.04586971      -3.98904347      -5.31372166
N        1.18532836      -4.71020937      -6.06403494
N        1.43818402      -5.85018253      -7.20132256
H        1.59768963      -6.54053545      -7.86379576
C        1.10312033      -5.73360205      -5.75417376
F        1.14034450      -7.06003523      -6.00254440
O        1.59883595      -6.88215828      -7.92389870
C        0.94350028      -2.53873038      -5.01408672
N        1.23090208      -3.11221981      -5.87048006
