12
Properties=species:S:1:pos:R:3 pbc="F F F"
C       -0.01435900      -0.69461697       0.00000000
C       -0.01435900       0.79447299       0.00000000
H        1.00610101      -1.10404205       0.00000000
H       -0.51703697      -1.09361303       0.88483900
H       -0.51703697      -1.09361303      -0.88483900
H        0.10013700       1.34606504       0.92370498
H        0.10013700       1.34606504      -0.92370498
C        1.21334732       0.71959138      -0.00537186
O        1.09985387       2.00313115      -0.06655514
H        0.85830438       2.94133782      -0.11473969
H       -0.13601741       2.01831341      -0.01768943
H        0.19356248       1.40931678      -0.74755293
