13
Properties=species:S:1:pos:R:3 pbc="F F F"
C       -0.01435900      -0.69461697       0.00000000
C       -0.01435900       0.79447299       0.00000000
H        1.00610101      -1.10404205       0.00000000
H       -0.51703697      -1.09361303       0.88483900
H       -0.51703697      -1.09361303      -0.88483900
H        0.10013700       1.34606504       0.92370498
H        0.10013700       1.34606504      -0.92370498
N        1.35516047       0.75871003      -0.00599237
O        0.30850992       2.22841978       0.02122107
C       -1.01156354       1.02183294      -0.05394766
C       -0.35157320       1.75918472       0.00677794
H       -0.25474522       0.01579612      -0.00525984
N        0.18992248       1.98708725       0.00625877
