10
Properties=species:S:1:pos:R:3 pbc="F F F"
C       -0.01435900      -0.69461697       0.00000000
C       -0.01435900       0.79447299       0.00000000
H        1.00610101      -1.10404205       0.00000000
H       -0.51703697      -1.09361303       0.88483900
H       -0.51703697      -1.09361303      -0.88483900
H        0.10013700       1.34606504       0.92370498
H        0.10013700       1.34606504      -0.92370498
N        1.35557532       0.78255081      -0.00599419
H        0.49275512       1.54283106      -0.00976944
H        0.25204694      -0.46256632      -0.00329934
