36
Properties=species:S:1:pos:R:3 pbc="F F F"
C        1.38166153       0.00000000       0.00000000
C        0.69092011       1.19713211       0.00000000
C       -0.69092011       1.19713211       0.00000000
C       -1.38166153       0.00000000       0.00000000
C       -0.69092011      -1.19713211       0.00000000
C        0.69092011      -1.19713211       0.00000000
H        2.47404242       0.00000000       0.00000000
H        1.23700202       2.14272499       0.00000000
H       -1.23700202       2.14272499       0.00000000
H       -2.47404242       0.00000000       0.00000000
H       -1.23700202      -2.14272499       0.00000000
C        1.46587873      -2.56131744      -0.05775034
H        0.93644530      -3.29605484       0.54884696
H        1.45688438      -2.92419648      -1.08553302
O        2.74887276      -2.47913027       0.35416022
C        2.93818474      -2.02659965       1.69739330
H        2.51879287      -0.98403692       1.81602085
H        2.40378761      -2.68857789       2.37879181
O        4.27682924      -2.11000443       1.97662961
C        5.09957457      -1.26144135       1.17168951
H        5.01280117      -1.58717799       0.07220542
H        4.75749302      -0.22897458       1.24304652
O        6.38732004      -1.32103419       1.63543367
C        6.94916821      -2.61226892       1.56375635
H        7.01479006      -2.96986318       0.49384081
H        6.34879732      -3.34610462       2.14093852
O        8.21267414      -2.45535111       2.12145472
C        8.93560219      -3.63845706       2.22011828
H        8.45481491      -4.40077066       2.83316040
C       10.40782261      -3.44450951       2.34279251
H       10.76665497      -2.42482948       2.20282340
H       10.97125626      -4.03363371       3.03588343
C        9.80290985      -4.11653328       1.13342834
H        9.90218353      -5.19662762       1.02553856
O        9.81335258      -3.44361711      -0.05987525
H       10.71142006      -3.25473595      -0.30543208
