18
Properties=species:S:1:pos:R:3 pbc="F F F"
C        0.00000000       0.00000000       0.00000000
H       -0.47183025       0.47662982       0.88447690
O        0.61716050       0.54733723      -0.80127025
O       -0.25890633      -1.40503657      -0.06114037
C       -1.05649543      -1.89119458       0.88564402
C       -1.09888375      -3.15822315       1.28781378
H       -0.46345448      -3.94718909       0.88549346
O       -2.00144339      -3.52334881       2.25164342
C       -2.14040828      -1.02670121       1.53270030
H       -3.07516623      -1.14975190       0.98572171
O       -1.79556322       0.40139747       1.48255897
C       -2.26158714      -1.28294837       2.91391397
H       -1.32207847      -1.15989769       3.45269156
C       -3.52160454      -1.14053321       3.69632840
H       -4.35064840      -0.68969464       3.15086532
H       -3.46774912      -0.83745658       4.72109318
C       -2.19761038      -2.45877075       3.36100793
H       -3.23005152      -1.21415472       3.49205184
