20
Properties=species:S:1:pos:R:3 pbc="F F F"
C        0.00000000       0.00000000       0.00000000
H       -0.10838032       0.34493598       1.02828610
H        0.60813797      -0.88018203       0.01863212
C       -1.22972929       0.24853677      -0.84029359
H       -2.04186726       0.68283081      -0.33599216
C       -1.47538865      -0.76047844      -2.04430246
H       -2.43028569      -0.48331121      -2.53770828
C       -0.34013712       0.04887897      -2.51018023
C        0.68379903      -0.75885594      -2.77098227
H        1.71510553      -0.48668271      -2.99554420
C        0.00837786       1.11550403      -0.95732892
H        0.01954357       2.17866254      -0.63847387
C       -0.95312548      -2.14549088      -2.50417113
H       -1.61986423      -2.98121715      -2.46034861
O       -0.09824335      -0.50010467      -1.27503610
C        0.37427044      -2.11077213      -2.57975650
H        1.04135287      -2.98967266      -2.70072794
O       -0.09204201       1.79546046      -0.24481606
H        0.84239924       0.00203183       1.22661519
H        0.84239924       0.00203183       1.22661519
