23
Properties=species:S:1:pos:R:3 pbc="F F F"
C        0.00000000       0.00000000       0.00000000
H       -0.90563285       0.53781831      -0.40924293
O        0.87334114       0.57589394       0.60804641
N       -0.08267289      -1.32186174      -0.26142922
H       -0.91699743      -1.63515222      -0.69253385
C        0.88774371      -2.39653444       0.16690242
C        0.37211591      -3.70858526      -0.37415963
H        0.27123293      -3.73599482      -1.41894221
C        2.21565366      -2.01449323      -0.49005842
H        2.57437444      -1.01375639      -0.10698617
O        2.79689932      -2.62429404      -1.30196702
C        0.00913844      -4.64231539       0.43854803
H       -0.41082612      -5.53602886       0.08160853
O        1.15368772      -2.38443828       1.53116989
H        1.57800269      -1.57635379       1.70965195
C        0.16901912      -4.52260542       1.95545459
H       -0.50193697      -3.71916294       2.32477474
H       -0.10614030      -5.47738504       2.45020914
O        1.60686541      -4.19667387       2.28174305
C        1.88651061      -3.05054116       2.55058718
H        1.39009106      -2.66982889       3.44318175
C        3.28191495      -2.44205236       2.39733648
C        0.98711741      -2.71462321       1.44263911
