12
Properties=species:S:1:pos:R:3 pbc="F F F"
C        0.00000000       0.00000000       0.00000000
H        0.74694258      -0.61588109       0.50086582
H       -0.36554509       0.78896600       0.65727377
C       -1.08360219      -0.73771524      -0.82709146
H       -0.86897874      -1.81607568      -0.97932452
H       -2.11004996      -0.65399647      -0.53675437
N       -0.36510372      -1.48100269      -1.69529772
C        0.48593470       0.56932205      -1.44797695
C       -0.56289196      -0.20526356      -2.24852514
H        1.52300012       0.38991469      -1.73153973
H        0.30304548       1.54203987      -1.42626977
O        0.03970253       1.77609921      -1.35489452
