8
Properties=species:S:1:pos:R:3 pbc="F F F"
C        0.00000000       0.00000000       0.00000000
H        0.27444279      -0.93757659      -0.48345688
H       -1.05095422       0.17611550      -0.09683970
C       -0.66074342       1.27567637       0.68129700
H       -1.08438182       1.34447002       1.72661853
H       -0.24942811       0.65538985       0.31804043
H       -1.29076171       2.18061304       1.22633433
C       -0.24211606       0.61547989       0.29947042
