14
Properties=species:S:1:pos:R:3 pbc="F F F"
C        0.00000000       0.00000000       0.00000000
H       -0.67060578       0.56810504       0.64470440
O       -0.59437490      -0.88209510      -0.89483243
H       -0.74364293      -1.70771599      -0.40803796
C        1.22082746       0.70915854      -0.47620645
N        1.61767137       0.14250827      -1.65871263
H        1.02246904      -0.66945738      -2.02112865
N        1.74232042       1.70109510       0.12129304
H        2.48694468       0.28254050      -2.01543999
H        2.55287004       2.01438570      -0.35300431
N        1.36227512      -0.38703525       0.63000613
C        1.78088641      -1.55311811       0.04527205
H        2.85454750      -1.62069428      -0.22819510
O        1.03026569      -2.44252038      -0.20298418
