16
Properties=species:S:1:pos:R:3 pbc="F F F"
C        0.00000000       0.00000000       0.00000000
H        0.77438003      -0.70739126      -0.21173717
N       -0.47725099       0.78733408      -1.09418213
C       -1.32994294       1.54648352      -0.58515620
O       -2.15688515       2.48344207      -1.19373918
N       -1.62064838       1.60259652       0.67040753
H       -2.36519027       2.20384288       0.92390257
C       -0.48066518       0.29571262       1.24836421
O       -0.24749908      -0.16611606       2.34218621
C       -2.09644198       2.76378131      -2.57426620
H       -1.24537599       2.23548198      -3.05247712
H       -3.01718378       2.39005446      -2.97108150
C       -0.73714042       3.17154932      -2.00249505
H       -1.44584095       2.43664694      -2.32274699
H       -2.36323071       2.13375044      -2.02821517
H       -2.31444645       2.15623021      -1.93935370
