10
Properties=species:S:1:pos:R:3 pbc="F F F"
C        0.00000000       0.00000000       0.00000000
C       -1.13111293      -0.49346864       0.54733050
C        0.99346215       0.97093916       0.64125490
H        1.58422756       1.58208668      -0.07260364
O        1.14105844       1.04460323       1.83995748
H       -1.36277461      -0.28810740       1.63409579
H       -1.72455978      -1.19973981      -0.03327352
N        0.37678331      -0.26841000      -1.26826215
H        1.21053696       0.17386815      -1.68074763
H       -0.24975145      -0.84652257      -1.88123798
