9
Properties=species:S:1:pos:R:3 pbc="F F F"
C        0.00000000       0.00000000       0.00000000
H        0.49655816       0.94760042      -0.01956422
C       -0.58537972      -1.07919061      -0.07467932
C       -1.20325780      -2.27476120       0.03179323
C       -1.74900341      -3.37383580       0.11602908
C       -2.35378075      -4.58013725       0.15577914
C       -2.92380357      -5.66943502       0.19324489
C       -3.52918410      -6.87573624       0.22240439
N       -4.04410791      -7.85876083       0.24720685
