13
Properties=species:S:1:pos:R:3 pbc="F F F"
C        0.00000000       0.00000000       0.00000000
H       -1.12478483       0.06879371      -0.08381979
O        0.48793641      -0.48122334       0.99721670
C        0.70201665       0.55343103      -1.14165866
N        2.09519172       0.73696530      -1.02557087
H        2.46084166       0.55704701      -0.12333524
C        2.78704453       1.50227606      -1.95709491
H        3.80546379       1.71501589      -1.70716774
C        2.16068363       1.90113974      -3.06048894
H        2.63280416       2.47925234      -3.79899240
N        0.10724747       0.88657486      -2.18940091
C        0.86181653       1.46149731      -3.20536733
H        0.27799112       1.64748847      -4.15481710
