11
Properties=species:S:1:pos:R:3 pbc="F F F"
C        0.00000000       0.00000000       0.00000000
H        0.39639732      -0.85749644      -0.62005502
O        0.28761977       1.13365710      -0.21953431
O       -0.79583824      -0.42088515       0.97897696
C       -0.96031642      -1.89734411       1.09349167
H       -0.55628121      -2.35645485       0.16716987
C       -2.47922516      -2.23622656       1.30078888
H       -2.88638186      -2.85838580       0.44988328
O       -3.12171268      -1.95452690       2.28666615
C       -0.20520592      -2.34419131       2.29774809
N        0.38744450      -2.72710180       3.28072524
