21
Properties=species:S:1:pos:R:3 pbc="F F F"
C        0.00000000       0.00000000       0.00000000
H        0.32641929      -0.42366105      -0.97265661
O        0.46564645      -0.26307496       0.99542159
O       -1.12463593       0.90052855      -0.16352482
C       -2.23423195       0.30861342      -0.59634304
H       -2.13508916      -0.75031710      -0.83495623
N       -3.37050414       0.95205879      -0.70104432
C       -3.26949286       2.25164652      -0.34980786
H       -4.11423683       2.83362579      -0.44258213
C       -2.07179832       2.70108390       0.08150703
O       -1.79131055       3.99266458       0.51190716
C       -1.13519812       4.77472258      -0.37149537
H       -0.95242447       4.30033875      -1.26729274
O       -1.00552177       1.85023963       0.20806403
C       -0.87024415       6.07241011      -0.02120236
H       -0.38527128       6.65052271      -0.75133014
C       -1.22207952       6.52184772       1.20220113
H       -1.02452779       7.50308037       1.44521356
C       -1.87526894       5.70255661       2.20450020
H       -2.17974186       6.19636250       3.19745088
O       -2.12946677       4.50761700       2.06166744
