21
Properties=species:S:1:pos:R:3 pbc="F F F"
C        0.00000000       0.00000000       0.00000000
H        0.91745758       0.45945397      -0.30343503
C       -1.02542043      -0.52960831       0.29004654
C       -2.31705809      -1.14589214       0.70473230
H       -2.29100418      -2.19721341       0.50738913
C       -2.86871791      -0.55442512       1.88402712
H       -3.21317291      -1.07320571       2.77863145
O       -2.93685770       0.79269469       1.82813752
C       -1.94375634       0.01805711      -0.11182511
H       -2.76324129       0.56988615      -0.57229078
N       -1.00986624      -0.24182478      -1.16311419
O       -0.90882784      -1.26564169      -1.83727217
N       -3.43348980       1.53690434       2.99450207
C       -3.40200615       2.70172000       2.66844678
O       -3.63302207       3.92589235       3.23847485
O       -3.01587749       3.12893414       1.44742632
C       -3.15411806       4.51817322       1.75694716
H       -2.20467401       5.05355930       1.75279284
H       -3.96553135       5.04782534       1.13761187
C       -3.40960836       4.24185228       2.49672508
H       -3.15878391       4.49185181       1.79054713
