7
Properties=species:S:1:pos:R:3 pbc="F F F"
C        0.00000000       0.00000000       0.00000000
H        0.32446158       0.80193579       0.66311616
H        0.82067603      -0.55205071      -0.28745484
C       -0.92907780       0.59937686       0.31632417
C       -1.37624991       1.15133071      -1.01614785
H       -2.31946993       1.77348995      -1.00376606
O       -0.76731735       1.01924884      -2.00642800
