10
Properties=species:S:1:pos:R:3 pbc="F F F"
C        0.00000000       0.00000000       0.00000000
C       -0.58893508       0.85340405       1.15210879
H       -0.62419373       0.43737653       2.15897369
H        0.21590890      -1.01968002       0.31895956
H        0.87292874       0.40574095      -0.55269247
C       -0.26068920       2.33325529       0.94428080
H       -0.86245692       2.93890309       1.68452764
O       -0.90320843       2.39806795      -0.39850217
O       -1.92376781       0.70334244       0.33933526
C       -1.64766765       0.94533193       0.07938671
