19
Properties=species:S:1:pos:R:3 pbc="F F F"
C        0.00000000       0.00000000       0.00000000
H       -0.46151620      -0.98234576      -0.10049284
C        0.86955774       0.72308999      -1.08899379
H        1.92080879       0.37182492      -1.14885485
O        0.73570997       1.72920251      -0.13929862
C        0.45523199       1.04470444      -2.48362494
O        1.36247396       1.41357839      -3.22776389
N       -0.86699057       0.88552886      -2.94675446
C       -1.03108203       1.15268016      -4.38293076
H       -2.06953025       1.48556638      -4.59008169
H       -0.84893650       0.24539512      -4.95891333
C       -1.82578254       0.03395444      -2.22811890
H       -1.54582703      -1.03459549      -2.33732080
H       -2.77169394       0.13813737      -2.75962329
O        0.09593773       2.34088659      -4.94050455
H        0.83783484       3.23051643      -5.41023445
H       -0.35331813       1.79287434      -4.63925409
C       -1.84333348       0.23650527      -3.91713095
C       -1.85136104       0.23650527      -3.93141723
