6
Properties=species:S:1:pos:R:3 pbc="F F F"
C        0.00000000       0.00000000       0.00000000
H       -0.66737896      -0.22664110      -0.77829200
C        0.79796880       0.21990007       0.88260329
C        1.70649910       0.55747408       1.96108115
H        2.55004406      -0.21770763       2.06120205
O        1.60165513       1.53139091       2.70498490
