5
Properties=species:S:1:pos:R:3 pbc="F F F"
C        0.00000000       0.00000000       0.00000000
N       -0.22410382      -0.97212452       0.96790999
H       -0.65061909       0.87452042      -0.00284677
C        0.99512577      -0.10406169      -0.87623876
H       -0.07571901       0.44781643      -0.33079928
