5
Properties=species:S:1:pos:R:3 pbc="F F F"
C        0.00000000       0.00000000       0.00000000
H        0.99987060       0.02793165       0.37997100
C       -1.05980837       0.19257487      -0.45674953
H       -2.09294176       0.24085815      -0.85974216
C       -2.36985779       0.45245677      -0.96775830
