20
Properties=species:S:1:pos:R:3 pbc="F F F"
C        0.00000000       0.00000000       0.00000000
O       -0.47541910      -0.66620582       0.89120442
H       -0.34662628      -0.03001999      -1.09610593
C        1.13032603       0.93286312       0.11413703
N        1.77211928       1.29798877       1.26812279
H        1.60299945       0.95508462       2.22452998
C        2.70229721       2.19049168       0.86724073
H        3.36137462       2.66487575       1.50086212
N        1.64572358       1.55635154      -0.91626394
N        2.65454435       2.36931062      -0.47098115
C        3.45573902       3.24405718      -1.40532780
H        2.77505255       3.86712813      -1.90627480
C        4.66799927       3.70290041      -0.59244090
H        5.34365702       2.80468988      -0.34912241
H        5.24389887       4.45153904      -1.13648009
O        4.21693230       4.29976130       0.57905143
C        3.22917891       2.02011108      -1.29076231
C        2.08771944       2.75466990      -1.62875581
C        3.82658100       3.77955914      -1.88679838
C        2.87646675       2.52280116      -0.86761713
