20
Properties=species:S:1:pos:R:3 pbc="F F F"
C        0.00000000       0.00000000       0.00000000
H       -1.08345830      -0.04741332       0.10940451
H        0.50277424      -0.52044070       0.86790478
O        0.30314636       1.35590887       0.04137274
O        0.30976027      -0.64018804      -1.19428062
C        1.67402864      -0.89643520      -1.44168258
H        1.69692302      -1.51628876      -2.31355238
C        2.66237640      -1.11606467      -0.34850836
H        2.30667686      -1.08761096       0.68142736
H        3.40196657      -1.87758780      -0.48262864
C        2.77299094       0.25429535      -1.18634808
H        3.61874175       0.24463576      -1.90517449
H        2.43521380       1.15800786      -0.82564104
C        1.61198890       1.67485809       0.29057297
H        1.68060637       2.74257541       0.30363756
C        0.67653966      -1.78919482      -2.04904914
C        2.83479714       0.93064839      -0.04377705
H        2.07782626       0.83879918      -0.41745239
C        3.77723384       2.14898705      -0.90205920
C        3.61249018       1.77056193      -0.91337228
