13
Properties=species:S:1:pos:R:3 pbc="F F F"
C        0.00000000       0.00000000       0.00000000
H       -1.01848304      -0.10609454       0.42841068
O        0.81876409       0.81732130       0.27876559
O        0.24225631      -0.94414967      -0.93401915
C       -0.81324351      -1.87072551      -1.20286036
H       -1.53091800      -1.86158812      -0.43646675
C       -1.22308934      -1.91066515      -2.67640352
H       -0.70248902      -1.23031211      -3.28352356
C       -0.48331040      -3.03467464      -2.03788376
H        0.55855876      -3.21408200      -2.30325341
H       -2.21031809      -2.06248951      -2.92785573
O       -1.66646385      -2.62644768      -1.72547829
O        1.08572745      -3.27494049      -2.40841007
