13
Properties=species:S:1:pos:R:3 pbc="F F F"
C        0.00000000       0.00000000       0.00000000
O       -0.10790867      -0.78055900      -0.94444817
C        0.48683310       1.31903541      -0.10600549
C        0.93020546       1.94655442      -1.28826571
H        0.93911779       1.50510156      -2.30666590
O        1.34309912       3.11591220      -1.13135779
C       -0.36332399      -0.47083905       1.45299816
O       -0.77377748      -1.56060469       1.69802392
C        0.62946278       2.17946649       1.05236101
H        1.03984475       3.15933990       0.92455655
O       -0.18100590       0.39871249       2.38827276
C        0.25862011       1.70794201       2.26175714
H        0.29185849       2.20074868       3.21093369
