13
Properties=species:S:1:pos:R:3 pbc="F F F"
C        0.00000000       0.00000000       0.00000000
O        0.14278814       1.25991464       0.61670494
O        0.85252577      -0.62708670      -0.49885991
O       -1.26755774      -0.30498067       0.12799436
C       -1.06067204       1.54267633       1.05009604
O       -1.99743748       0.62919962       0.81149715
N       -1.32105982       2.66356754       1.63310516
H       -2.30081272       2.77984476       1.92884779
C       -0.25886679       3.59014344       1.87414718
H       -0.58941138       4.69161415       1.87270093
H        0.23788458       3.41402793       2.80534029
O       -0.00586301       2.78038812       1.92692280
C       -0.55057102       4.53326988       1.79984868
