6
Properties=species:S:1:pos:R:3 pbc="F F F"
C        0.00000000       0.00000000       0.00000000
H        1.02361643       0.02740956       0.23228785
C       -1.18432403      -0.13885531      -0.30165333
C       -2.52047372      -0.05545056      -0.59259319
C       -3.66782355      -0.04526884      -0.82146776
H       -4.67696619      -0.00046543      -1.02277255
