19
Properties=species:S:1:pos:R:3 pbc="F F F"
F        0.00000000       0.00000000       0.00000000
C        0.63126725       0.90065765      -0.84995043
H       -0.08891457       1.28351176      -1.66066623
O        1.66983962       0.18682384      -1.48233247
C        1.08411670       2.16015530      -0.06822741
H        0.17860591       2.66941690       0.18790191
C        2.26413631       2.91449022      -0.57678467
H        2.83285260       2.43089485      -1.31515896
C        2.25777817       2.25208306       0.87737620
H        2.83504462       1.38835311       1.02980053
H        2.17235160       2.94539523       1.68788218
C        2.26182127       0.94255978      -2.56903362
H        2.92087388       0.31702065      -3.05405927
H        2.23285985       4.02212238      -0.64214849
C        2.43343377       2.41552544      -2.28439522
H        1.80919027       3.24689007      -2.72717309
C        1.38959944       1.96592832      -3.21093988
H        0.37082279       2.01160169      -2.96092510
H        1.53105330       2.10780954      -4.28236866
