7
Properties=species:S:1:pos:R:3 pbc="F F F"
F        0.00000000       0.00000000       0.00000000
C       -1.30983162       0.36512563      -0.16710067
C       -0.32788140      -0.21455923      -0.88976067
C       -1.51626694       0.93177593      -1.39721870
H       -2.40609312       1.39981782      -1.81822395
O       -0.42901695       0.92002779      -2.19737339
N       -0.55738133       0.83710325      -2.12911654
