27
Properties=species:S:1:pos:R:3 pbc="F F F"
H        0.00000000       0.00000000       0.00000000
C       -1.06125057       0.29583174      -0.13538815
O       -1.71444321      -0.10033903      -1.04779553
C       -1.62566447       1.24604464       0.92264307
H       -2.44262981       1.84097302       0.46359304
O       -0.55787528       2.08273983       1.30717635
C       -2.21222329       0.45903689       2.07010341
H       -2.14578724       0.95184356       3.01753521
C       -2.78728271      -0.65524942       1.86867976
H       -3.28153324      -1.21720386       2.68844986
C       -2.93404078      -1.35488915       0.58420920
H       -2.65581775      -0.81318539      -0.29559094
C       -4.13101339      -2.33852029       0.53704911
H       -4.69924450      -2.36645198       1.44326806
H       -4.70193768      -2.34800577      -0.39141989
C       -2.75414276      -2.90721846       0.50692207
H       -2.37203336      -3.23410678      -0.46015376
O       -2.21434402      -3.59978175       1.61013198
H       -1.29703689      -3.44670939       1.60611832
C       -0.90433562       3.03742599       2.25619555
H       -1.81036139       3.67059684       1.93884563
H       -0.01963794       3.72369719       2.40864611
O       -1.22308016       2.34486270       3.44230533
O       -1.49496341       3.23297024       4.52961540
H       -1.65983987       3.66804218       5.14315271
H       -1.51262891       4.39896917       4.43457174
H       -1.46378911       4.22845840       4.36189175
