22
Properties=species:S:1:pos:R:3 pbc="F F F"
H        0.00000000       0.00000000       0.00000000
C       -0.27013281      -0.28715521       1.08030975
O       -1.03752148      -1.16266298       1.32668304
O        0.39865044       0.40603709       1.99743128
C        1.24680805       1.42662597       1.52085459
H        1.67946470       1.17751956       0.57446486
C        0.86480033       2.90323806       1.79687011
H        1.19672298       3.60950923       1.03587890
C        2.00514150       2.09444809       2.56077862
H        1.71215987       1.84068549       3.57953548
C        3.50043130       2.45530295       2.37001824
H        3.70235205       3.52627516       2.35141230
H       -0.02591747       3.16542339       2.28715587
H        4.07545185       2.02180433       3.18826604
N        4.02497673       1.86272216       1.10756111
H        3.62410259       2.40997934       0.30611932
H        5.02560711       1.99418998       1.06813657
C        3.66998649       0.42421615       0.81639063
H        4.10974503      -0.21880955       1.60710526
H        4.12555981       0.15204293      -0.13569874
O        2.03667116       0.20944205       0.72338504
C        3.50891304       0.81108391      -0.40364516
