16
Properties=species:S:1:pos:R:3 pbc="F F F"
H        0.00000000       0.00000000       0.00000000
N       -0.08860794      -0.64094692      -0.77552259
C        0.25489408      -0.28648189      -2.01053667
N        0.76975149       0.89799559      -2.40351677
C        1.04094005       2.01459122      -1.51911354
H        0.08196032       2.57944775      -1.22964144
H        1.56194139       1.65699697      -0.58231938
H       -0.46035609      -1.54755878      -0.63425088
O        0.09479772      -1.10938489      -2.96452761
O        1.87804508       2.81982136      -2.28263021
C        0.99038726       0.96280825      -3.87566376
H        1.76901770       0.25653708      -4.16378689
H        0.06131887       0.69063503      -4.37651587
C        1.38983417       2.39410210      -4.23999596
O        0.97136295       3.29384232      -3.38474870
O        2.05632520       2.60642815      -5.32388067
