24
Properties=species:S:1:pos:R:3 pbc="F F F"
H        0.00000000       0.00000000       0.00000000
C       -0.68009096      -0.23095807      -0.79311657
C       -1.46033025      -0.52810133      -1.64107394
C       -2.38789892      -0.84971577      -2.76191235
H       -2.11523747      -1.89465141      -3.15721512
O       -3.76843786      -0.83709741      -2.31868458
C       -4.16131401      -2.02416372      -1.66705537
H       -4.09469366      -2.89113212      -2.35700250
H       -5.16009092      -1.90562868      -1.36557031
C       -3.30805826      -2.45186996      -0.49696147
N       -3.73334765      -2.96490955       0.60758269
O       -2.02938175      -2.32857084      -0.61478448
H       -2.93526649      -3.22210073       1.20576215
C       -2.25929189       0.14856511      -3.88752031
H       -2.55249262       1.16506934      -3.55158615
H       -1.21205330       0.17754093      -4.25433254
O       -3.11760330      -0.29130733      -4.88847589
C       -3.08529449       0.58343917      -6.11887121
H       -2.32837296       1.38688159      -6.00204039
C       -2.86452842      -0.26073486      -7.20087433
C       -2.69268179      -1.02622187      -8.22488499
H       -4.03203249       1.03430521      -6.17278099
C       -2.43073988      -1.88293290      -9.23480129
N       -2.19258237      -2.61272383     -10.09106350
