15
Properties=species:S:1:pos:R:3 pbc="F F F"
H        0.00000000       0.00000000       0.00000000
C       -0.98838478      -0.43349874       0.15255721
N       -1.32372665      -1.63980007      -0.35230070
C       -2.63711071      -1.72442245       0.09486860
C       -2.99448228      -0.58407354       0.76478517
N       -3.48492885      -2.84132743      -0.18553421
H       -3.31570268      -3.59911990       0.49123201
H       -3.28089499      -3.21051502      -1.10323250
N       -4.18862820      -0.24198431       1.34261644
H       -4.87193060      -1.03877306       1.31569469
C       -4.75957251       1.08283043       1.06015158
H       -5.15973949       1.13024378       0.04737449
H       -3.95931315       1.87311876       1.16936922
N       -1.93940210       0.16063261       0.79026598
C       -1.16678667      -0.63605744      -0.07947457
