20
Properties=species:S:1:pos:R:3 pbc="F F F"
O        0.00000000       0.00000000       0.10878600
H        0.00000000       0.00000000      -0.87028402
C       -1.33509874      -0.20783728       0.51179129
H       -1.46882236       0.26836517       1.46060562
C       -2.35832381      -0.35025245      -0.56190616
H       -3.33249831       0.09231386      -0.56616861
C       -1.95505595      -1.54474378       0.19404596
H       -2.59690332      -2.02984715       0.92944115
C       -1.55018997      -0.52071708      -1.82601023
C       -2.00644040      -1.27220488      -2.82400823
H       -3.06566763      -1.52596748      -2.86574125
O       -1.19873738      -2.38316703      -0.54590482
C       -0.76795936      -1.71534503      -1.75872874
H        0.35723078      -1.70551145      -1.86240876
C       -1.22177100      -1.23069894      -4.20627785
H       -1.75488150      -1.85788059      -4.95094967
H       -1.10423934      -0.24349344      -4.60189247
N       -1.04952228      -2.48536777      -4.87038231
C       -2.16734982      -1.25671411      -4.69784546
H       -2.28049612      -1.13697648      -4.62456656
