22
Properties=species:S:1:pos:R:3 pbc="F F F"
O        0.00000000       0.00000000       0.10878600
H        0.00000000       0.00000000      -0.87028402
C       -0.75378728      -1.09916770       0.42585611
C       -1.07989860      -1.59263635       1.63937938
N       -0.82710886      -1.10015523       2.93616676
H       -1.71504068      -0.99979556       3.48753262
H       -0.19234705      -1.77917814       3.46617126
C       -1.36417782      -2.01622009      -0.60687637
O       -1.37473392      -1.92154741      -1.81312037
N       -1.74328518      -2.77105808       1.41997445
N       -1.77761602      -3.01276636       0.11257362
C       -2.25698900      -3.73948073       2.30674624
H       -2.67160845      -4.57885265       1.74849486
H       -2.99349856      -3.33108664       2.96679711
H       -1.67599463      -3.99582672       2.74221420
N       -3.98409748      -2.78925323       3.63104749
O       -2.98718262      -2.89244556       1.19440079
H       -0.87757224      -1.84949625       2.78357601
H       -0.65345174      -2.48014498       1.77553272
C       -0.95170981      -3.08153582       2.58588672
H       -1.51110983      -2.31847000       2.52358842
H       -1.16467535      -2.40818214       2.41878891
