6
Properties=species:S:1:pos:R:3 pbc="F F F"
O        0.00000000       0.00000000       0.10878600
H        0.00000000       0.00000000      -0.87028402
H        0.00000000      -0.00670079       0.87875676
H        0.00000000      -0.01496800       1.82872057
C        0.00000000      -0.02584591       3.07867289
H        0.01181334       0.01174814      -1.24111056
