19
Properties=species:S:1:pos:R:3 pbc="F F F"
O        0.00000000       0.00000000       0.10878600
H        0.00000000       0.00000000      -0.87028402
C        0.67246258       1.08073020       0.49442148
N        1.25021708       1.99882817      -0.20371497
C        1.73720133       2.81564450       0.83732092
H        2.26492405       3.68279219       0.66278476
O        0.74403316       1.21167564       1.85626924
C        1.41661930       2.37952375       2.03026867
C        1.61916983       2.86369991       3.46743417
H        1.21476471       2.10132456       4.16553116
O        2.97002554       3.11631250       3.67593908
C        3.30736446       3.52702379       5.02501917
H        4.41025782       3.65233231       5.02019358
H        3.07536721       2.78148699       5.69677210
C        1.52778733       3.38697076       4.89240360
H        0.78362358       3.41594648       5.71549511
C        3.68478346       4.41522408       4.19945621
H        1.05707192       3.81503677       3.70387292
N        2.86450624       3.07830715       5.29589748
