14
Properties=species:S:1:pos:R:3 pbc="F F F"
O        0.00000000       0.00000000       0.10878600
H        0.00000000       0.00000000      -0.87028402
C       -1.26982665      -0.53002185       0.56607711
H       -1.06981385      -0.83876348       1.59212422
C       -1.62634945      -1.77326775      -0.25131428
O       -2.12463236      -1.48618913      -1.45056343
C       -2.50817227      -2.64605498      -2.15462780
H       -2.89060950      -2.34489298      -3.17440343
O       -2.45833588      -3.78526306      -1.74988079
C       -2.30893421       0.45213723       0.54334062
C       -3.17358589       1.29837513       0.52442139
H       -3.96696091       2.07467604       0.52095002
N       -1.42600596      -2.98004484       0.15813646
H       -1.68682718      -3.63454700      -0.53734803
