26
Properties=species:S:1:pos:R:3 pbc="F F F"
O        0.00000000       0.00000000       0.00000000
C       -0.34999809      -0.37205324       1.39970553
H       -1.07166839      -1.18671584       1.45983958
H        0.55751216      -0.58876950       1.96322894
C       -0.84487581       1.03077304       1.48498273
N       -1.86400294       1.74361515       1.95629442
N       -0.97375190       2.23090219       2.21380329
N        0.10450864       1.50229752       0.64902067
C       -1.47076607       2.73413730       1.42683268
O       -2.22276306       3.92120361       1.54290342
C       -1.88550484       5.05775642       0.89714557
H       -2.58375359       5.84672260       1.17657495
N       -0.94056833       5.19661188       0.12208861
C       -0.68217814       6.48074293      -0.49979538
H        0.33235717       6.85693884      -0.17407459
H       -1.44675565       7.27103138      -0.23947880
O       -0.69431144       6.22449589      -1.88626170
C       -0.36575118       7.37023258      -2.63954401
H       -0.39383459       7.07440090      -3.70902729
H        0.63245201       7.73311186      -2.39457798
O       -1.47173166       8.66322899      -2.32671070
H       -1.98294711       8.62190533      -3.12636733
C       -0.12280625       7.78696203      -0.91576600
H       -0.28508437       7.96966124      -1.99853384
H        0.71286303       8.33571053      -3.09835982
H       -0.22960398       7.99232340      -2.02180409
