9
Properties=species:S:1:pos:R:3 pbc="F F F"
O        0.00000000       0.00000000       0.00000000
C       -0.12370016      -0.89478707      -1.08265996
H        0.19626501      -0.46049303      -1.98349857
C       -0.75789249      -2.07320881      -0.78936750
H       -0.99711084      -2.84950972      -1.54582679
O       -1.06260681      -2.26040983       0.42923981
C       -0.20003538      -0.50077927       1.25940633
O        0.05169804       0.18859059       2.19615531
O       -0.66102177      -1.71802437       1.40740800
