25
Properties=species:S:1:pos:R:3 pbc="F F F"
O        0.00000000       0.00000000       0.00000000
C        0.48453721       0.43987244      -1.22630918
N        1.22258747       1.51747823      -1.12558174
C        1.26655555       1.88853467       0.12999880
C        0.21540359      -0.23121047      -2.43681049
C       -0.00956383      -0.81571430      -3.44866228
H       -0.19417562      -1.31545699      -4.35346889
H        1.81685209       2.77910137       0.49900275
N        0.63740927       1.12964857       0.99276507
C        0.63740927       1.40043461       2.45795202
H        1.24164939       2.31352067       2.64034438
C       -0.78636807       1.62596011       2.97068405
H       -1.27585840       2.46827960       2.43871021
H       -0.74775410       1.86986911       4.07336998
O       -1.46323204       0.43033504       2.75988960
C       -2.81860733       0.41771668       3.27495909
H       -3.45414376       1.22199249       2.75367880
H       -2.81860733       0.63443291       4.34319735
H       -3.56342506      -1.39047599       2.90647340
C        1.27939272       0.23939979       3.22002363
H        2.33421421       0.07283515       2.85055542
H        0.72241580      -0.66142362       3.06773043
O        1.27939272       0.61281788       4.90924120
H        1.94406152      -0.03759652       4.91796637
O        1.18445373       0.53942943       4.57393169
