11
Properties=species:S:1:pos:R:3 pbc="F F F"
C        0.00000000       0.00000000       0.00000000
H       -0.66737896      -0.22664110      -0.77829200
C        0.75398779       0.23262201       0.86387992
C        1.70130563       0.52489066       1.94926739
H        2.55076337      -0.25029105       1.94555056
O        0.96432477       0.43783316       3.17163324
C        0.45941103      -0.86306357       3.37369275
H       -0.23700261      -1.15889525       2.56154084
H        1.23500299      -1.57083821       3.37029910
C       -0.76414955      -0.54411435       2.84637022
H       -0.28770036      -1.10598063       3.57096362
