11
Properties=species:S:1:pos:R:3 pbc="F F F"
C        0.00000000       0.00000000       0.00000000
H        0.77438003      -0.70739126      -0.21173717
C       -0.89273620       0.84258872       0.23572233
C       -1.80496192       1.71214032       0.51108158
C       -2.75072956       2.57819867       0.77859783
C       -3.61097050       3.42299294       1.02192235
C       -4.60369301       4.35995150       1.28404558
N       -4.83441448       5.48943615       0.50743145
N       -5.38891554       4.14762545       2.28526592
H       -4.01401424       5.98917866       0.08352140
C       -6.39815426       5.17959595       2.42300463
