11
Properties=species:S:1:pos:R:3 pbc="F F F"
C        0.00000000       0.00000000       0.00000000
H       -0.27013281      -0.28715521       1.08030975
O       -0.67967635      -0.76278836      -0.88243556
N        0.90883988       0.82639158      -0.23148631
C        1.37570524       1.29580402      -1.47639060
H        0.99204963       0.75410026      -2.31559539
C        1.59480786       2.82785749      -1.56185567
H        1.51735830       3.29589939      -2.54320049
C       -0.11454087      -2.04397011      -1.04764199
H       -0.06572012      -2.61207509      -0.11867887
O        1.13001204       3.58359337      -0.41497898
