11
Properties=species:S:1:pos:R:3 pbc="F F F"
C        0.00000000       0.00000000       0.00000000
H        0.51318854       0.73218942      -0.69096696
C       -1.51314247      -0.20696414      -0.44233835
C       -2.39811015      -1.10749269       0.27066833
H       -3.36869431      -0.75622761       0.67893106
N        0.46036583      -0.53674525       1.03076017
H        1.41502690      -0.23384872       1.16105020
O       -2.06327224      -2.24727511       0.34051427
N        0.26304963      -1.60154498       0.15085040
N       -0.68649518       0.03576295       1.18505013
C       -1.23507512       1.08196747       2.05992961
