7
Properties=species:S:1:pos:R:3 pbc="F F F"
C        0.00000000       0.00000000       0.00000000
H        0.32641929      -0.42366105      -0.97265661
H        0.58750975      -0.39312693       0.74912143
N       -0.37770104       0.03680712      -1.35797107
H       -1.07912683      -0.55065978      -1.73610330
C       -0.73389918       0.85749644      -0.05469071
O        0.06293708      -0.10508609      -0.08608578
