33
Properties=species:S:1:pos:R:3 pbc="F F F"
C        0.00000000       0.00000000       0.00000000
H        0.62911803       0.62911803       0.62911803
H       -0.62911803      -0.62911803       0.62911803
H        0.42905664      -0.62213278      -1.44421542
C        0.96730006      -0.91602385      -0.97857398
C       -0.67647827      -1.99564445      -1.85330558
C        1.19235766      -1.81700110      -1.69025373
C       -0.18736464      -0.08161831      -1.79058039
C       -1.30088723      -2.29906321       0.81913209
C       -0.29792124      -1.16212308      -1.59946251
C        0.14045081      -0.56917202      -1.37778938
H        1.22013044       0.05061044      -2.71663141
H        1.23612165       0.05061044      -2.69185686
C        2.29043937       0.00075116      -1.13547707
N        1.61088431      -0.72281033      -2.05044270
N        1.62700129      -0.72281033      -2.06219578
C        0.22361779       0.06792806      -4.40493345
H       -0.31608075       0.20828202      -2.55758095
C       -0.75789481       0.17617369      -1.41011930
C        0.20095742      -0.57766402      -0.44030547
H       -0.92349970       0.55686390      -1.21843982
H       -0.38954690      -0.42942932      -1.08755147
C       -0.61141121      -0.27309072      -1.43381870
C       -0.94684327      -0.44554159      -1.00747681
C       -0.83343744      -0.71524006      -0.87122619
C       -0.14600554       0.01921952      -1.10403347
O       -0.53963405       0.29147485      -0.48732591
C       -1.45119643      -0.73943269      -0.50532568
N       -0.67776179      -0.51268274      -2.51561928
C       -0.90119648      -0.91025043      -0.64491659
F       -0.52459425       0.47523546      -2.19366741
F       -0.22446299       0.26368642      -2.11546469
F       -0.21547499       0.23608232      -2.13129783
