33
Properties=species:S:1:pos:R:3 pbc="F F F"
C        0.00000000       0.00000000       0.00000000
H        0.62911803       0.62911803       0.62911803
H       -0.62911803      -0.62911803       0.62911803
C        0.27696431      -0.58866447       0.83473408
C        1.56891906      -0.72678941       0.26253113
C        0.90546906       2.41311097       0.49836746
N        0.16031075       1.90106845       0.28053465
C       -0.79999328       0.30429810       0.67423677
O       -0.70898199      -0.05038137      -1.79435277
H        0.34023803      -0.24321382       1.59611475
C        0.07823262      -0.26773113       1.11566067
N        0.54070151      -1.05757952       0.41941273
C        0.35957223      -0.80323303       0.57697183
C        0.34006375      -1.12537432      -0.16595775
C        0.61435026      -1.63526070      -0.48119479
C       -0.10418251       0.25655019       1.78141689
C       -0.02106169      -0.13883126       1.13927770
C        0.82344854      -1.18738222       0.71392167
C        0.79874980      -1.17250860       0.64160186
C        0.81422353      -1.37203574       0.42934632
C       -0.06279254      -1.22688162      -0.26243752
O        2.06547642      -1.83530807       0.06883973
C       -0.03062630      -1.22688162      -0.29203498
O        1.80409861      -1.64488745       1.13767993
O        1.86881232      -1.57962549       1.18276668
O        1.99414253      -1.86161423       0.05215909
O        1.95613813      -2.27034140      -0.17336515
O        1.95771670      -2.25996065      -0.20727709
O        1.92104256      -2.24911523      -0.26759163
C        0.67931002       0.10545206       1.68128633
O        1.11788821      -1.42520690      -0.53200245
C        0.61455178       0.13447058       1.62058496
O        1.25058460       0.81676263       0.75100565
