5
Properties=species:S:1:pos:R:3 pbc="F F F"
C        0.00000000       0.00000000       0.00000000
H        0.62911803       0.62911803       0.62911803
H       -0.62911803      -0.62911803       0.62911803
C       -0.39367014       0.12864590       1.03842354
C        1.67835319       0.63607442      -0.90478468
