33
Properties=species:S:1:pos:R:3 pbc="F F F"
C        0.00000000       0.00000000       0.00000000
H        0.62911803       0.62911803       0.62911803
H       -0.62911803      -0.62911803       0.62911803
C        1.54881740       1.10532045       0.36026165
C        0.78074354      -0.95073247       0.27001888
O        0.62082821      -0.27078602       1.32715678
C        0.21083540      -1.06153905       1.65748250
C       -0.41994807      -1.09541333      -0.07495326
C        0.47537416      -1.22324944       0.32711893
C        1.52716875      -0.40336818       0.11730590
C        2.85504818       1.00808430      -0.09956609
C        2.83060360       1.03128719      -0.09557372
N        1.90145028       1.89111733       0.06475762
N        1.88951910       1.87414265       0.08426833
N        1.88951910       1.87414265       0.08426833
N        1.88644958       1.87414265       0.06734250
H        0.79350305      -1.12749708       0.29821169
N        1.00979698      -2.45953822       0.41921040
N        0.34298199      -2.02225542       0.50867212
C        0.84188956      -0.74788177       2.46118069
H        0.34755051      -0.35919935       2.42004347
C        0.72560143      -0.62484753       2.52137709
C        0.66370070      -0.51931381       2.55145025
C       -0.24744654      -0.65747797       3.30534887
C       -0.27156132      -0.72264987       3.26877260
C       -0.29152381      -0.78755522       3.22953057
C        0.19479403       0.43074065       3.84244609
C       -0.07746013       0.05882019       3.77288461
C       -0.05993679       0.05882019       3.76578283
C       -0.05993679       0.05882019       3.76578283
C       -0.07746013       0.05882019       3.77288461
C       -0.22658744       0.16141146       3.47975278
F       -0.68390417       0.42832032       2.76440620
