6
Properties=species:S:1:pos:R:3 pbc="F F F"
C        0.00000000       0.00000000       0.00000000
H        0.62911803       0.62911803       0.62911803
H       -0.62911803      -0.62911803       0.62911803
F       -0.40326017       0.13198650       1.12867212
O        1.87212706       1.33521962      -0.54512411
H        0.75792283       0.65939534       1.93712258
