25
Properties=species:S:1:pos:R:3 pbc="F F F"
C        0.00000000       0.00000000       0.00000000
H        0.62911803       0.62911803       0.62911803
H       -0.62911803      -0.62911803       0.62911803
F        0.33729941      -0.63674182       1.88948989
C       -1.30205917       0.84147513       0.24790892
H        1.02495825       0.47565538       0.21380253
C        1.31318188       0.29597420      -0.36263323
C        0.20061040       0.70282489       1.12558281
C       -0.57919413       0.80211902       1.96558690
C        0.84935379      -0.14003225      -0.40185666
N        0.22220002      -0.71383381      -1.19547760
N        0.17643467      -0.75571978      -1.17722416
F        0.90757191      -0.15010297      -1.53455365
C       -0.02799344      -1.08227253      -1.04071593
C       -0.39740282      -1.32723856      -0.93485028
C        1.05639374       0.09933549      -1.59016156
C        1.05657029       0.11527354      -1.55506921
C        0.62292737      -1.42776847      -1.05904150
C        0.63462883      -1.42029297      -1.05505753
C        0.65765345      -1.40470243      -1.04721832
N       -0.09825885      -1.90478325      -1.26986647
N       -0.09018111      -1.91778779      -1.26750517
C       -0.93777865      -2.20497537      -1.54508913
C       -0.95045692      -2.17640853      -1.54903746
C        0.62227470      -1.36512697      -1.14473510
