33
Properties=species:S:1:pos:R:3 pbc="F F F"
C        0.00000000       0.00000000       0.00000000
H        0.62911803       0.62911803       0.62911803
H       -0.62911803      -0.62911803       0.62911803
C        1.61162376       0.93801248       0.64201558
N       -0.84288490       0.47662371       1.01348472
F        0.54531056      -0.61401147       1.58436835
F        0.69605076      -0.82554257       0.33920395
C        1.84380925      -1.97080588      -0.70765710
N       -1.14298928      -0.54100585      -1.43142712
C        1.04475892       1.46106672       0.08741838
H        0.92184603       0.32378036       0.46237659
C        0.53669494       0.37820849       0.40226471
H        0.13326481       0.83136457       0.75363964
F        1.66488540       0.04411633       0.28689224
F        1.66934323       0.13222875       0.22782822
F        0.45596403       1.42752755       1.18421185
F       -0.81560206      -1.30782199      -1.05891037
F       -0.86654335      -1.28436172      -1.04709756
F       -0.96793497      -1.23628151      -1.01568007
F       -2.28472328      -0.48373896      -0.97878772
C        0.19837123      -1.56652296      -1.29857576
C        0.23219484      -1.43144941      -1.26627493
C       -1.81365240      -1.57952201      -2.61286354
C       -2.84835148      -0.05328336      -0.98113519
C       -0.04857385      -1.94242847      -1.28443754
C       -0.02933919      -0.38183028      -2.28145361
C       -2.12595844      -0.55118757      -0.79694551
C       -2.12417245      -0.61223471      -0.79809833
C        1.14285409      -2.81822252      -1.74917626
F       -1.50376105      -0.73137295      -0.81724352
C       -1.37390745       0.35094154      -1.11495566
C       -1.33450043       0.35643017      -1.07206571
C       -1.32867026       0.36158931      -1.04456687
