33
Properties=species:S:1:pos:R:3 pbc="F F F"
C        0.00000000       0.00000000       0.00000000
H        0.62911803       0.62911803       0.62911803
H       -0.62911803      -0.62911803       0.62911803
O       -0.68377626      -1.41584277      -0.26204735
C       -1.69454980       0.06344527       1.24010873
N        0.77909094       0.05362183       0.34820709
O        0.84064412      -0.20224655       1.36463749
F       -2.99230671       0.69627362       0.73389488
C        1.64115977       0.96570146       2.25005770
O        0.10271239      -0.15294015      -0.33720517
F        0.22154017      -0.52965200      -0.99643755
C        0.93953484      -0.91668725      -2.31446075
C        1.88229978      -1.11194229       0.54031682
C        1.91795373       0.31874728       0.83165693
C        0.58314705      -0.09951617       0.49789566
C        1.86630225       1.01853728      -0.41225016
C        1.78602374       0.81257886      -0.38735378
C       -0.07894313      -0.85685831       1.31227362
C       -0.17572474      -0.52231812       0.98854220
C       -0.09230626      -0.19241291       0.72713774
C        0.11959949      -0.90173030      -0.02604220
N       -1.60856724       1.04514420      -0.35025746
N       -1.60856724       1.04514420      -0.35025746
N        1.59005868      -1.10180521       0.24542588
N        1.64891386      -1.01633441       0.22504005
C        0.08582237      -1.42468739      -0.25573149
C        0.05854420      -1.42468739      -0.26331854
C       -0.64199042      -1.05430198       1.76258802
C       -0.57892811      -1.05430198       1.78814542
C       -0.45031336      -1.05430198       1.83256388
C       -1.45616543       0.85841984       1.23071647
C       -1.47218990       0.86245126       1.20777702
C       -1.49125350       0.86624074       1.18452179
