33
Properties=species:S:1:pos:R:3 pbc="F F F"
C        0.00000000       0.00000000       0.00000000
H        0.62911803       0.62911803       0.62911803
H       -0.62911803      -0.62911803       0.62911803
O        1.12567616       1.57671845       0.60955381
C        1.70111108       0.18829386       0.97553188
C        0.08078825       1.20588660       1.59128690
C        0.43263113       2.27270246      -0.83882165
C       -0.50220340      -1.16798139       1.65985465
C       -0.27524579       0.55358231       1.00147581
F       -0.08502848       0.14188111      -1.07737601
F        2.00890613       3.25349426       0.07175893
C        0.88959461       0.65491462       0.81364971
C        1.24475420       1.17377830       1.98758388
F        2.15590954      -0.72936738       0.60249645
F        2.18131065      -0.71899116       0.60900545
C        0.87578219       0.90201521       1.77169383
C        0.52356356       0.53991967      -0.35004699
O        0.62118864      -0.46923509       0.22370306
C        0.11175591      -1.20436299      -0.22342637
C       -0.41314736       0.77332824      -0.15288031
N       -1.25661254       1.13725150      -0.84470803
N       -1.26971424       1.17499733      -0.80668032
N       -1.27065504       1.26713395      -0.73882884
C       -1.47710931       2.66231656       0.49906230
C       -1.41571140      -0.19826126      -1.78081727
C       -1.45422590       2.66231656       0.50249207
C       -0.95421743      -0.28908682      -2.11702943
C       -1.00540352      -0.31232190      -2.10210180
C       -1.48113847       2.63908148       0.52442932
N       -1.93982279       2.08634305       1.04996586
N       -1.04415715       3.07355833       0.09690487
F       -1.11820972       1.36278152       1.83984518
N       -2.42659688       3.16231298      -0.25232023
