5
Properties=species:S:1:pos:R:3 pbc="F F F"
C        0.00000000       0.00000000       0.00000000
H        0.62911803       0.62911803       0.62911803
H       -0.62911803      -0.62911803       0.62911803
F        0.89409840       0.78221118      -0.07745671
F       -0.61608511      -1.12595236      -0.86013800
