33
Properties=species:S:1:pos:R:3 pbc="F F F"
C        0.00000000       0.00000000       0.00000000
H        0.62911803       0.62911803       0.62911803
H       -0.62911803      -0.62911803       0.62911803
C       -1.19965923       0.48615801      -0.30555931
F       -0.43607676       0.76062244       0.76859790
C       -2.57188153       1.78854764      -0.98444271
C       -0.59164321       0.58197939       0.61004734
C       -1.20414841       0.10542828       0.13860953
C       -1.37165141      -0.29863375      -0.23765886
C       -1.12535262      -0.02089149       0.10586417
C       -0.22042137       0.19273973      -0.49611080
C       -0.24193293       0.17249197      -0.49581051
C       -0.02384374      -0.88461989       0.17340583
C       -0.12022907      -0.89461184       1.71697998
C       -2.02414536       1.65610051       0.42953822
C       -0.06893808      -1.05872917       1.63635778
C       -0.08665162      -1.05872917       1.64600706
C        1.74007988       0.71739310       1.55673313
C        1.74109077       0.69219077       1.55757713
C        1.74109077       0.69219077       1.55757713
N        1.80118060      -0.59110111       1.54230428
N        1.77234125      -0.59199387       1.53299057
N        1.75544930      -0.59199387       1.51974273
N        1.76109278      -0.59110111       1.49757278
N        1.75948656      -0.58604652       1.42724562
F        1.68490779      -0.89226317       2.58403325
F        1.66546166      -0.87326235       2.58759069
F        1.64639997      -0.87326235       2.58575010
F        1.64544010      -0.83501011       2.59485674
F        2.69008732      -1.17078590       0.70799512
F        2.68759370      -1.21286643       0.73763710
F        1.74408865      -0.26685119      -0.44548380
C        2.37198544      -0.66788852       0.77474409
