7
Properties=species:S:1:pos:R:3 pbc="F F F"
C        0.00000000       0.00000000       0.00000000
H        0.62911803       0.62911803       0.62911803
H       -0.62911803      -0.62911803       0.62911803
C       -0.29952651      -1.81952190       1.22174478
H        0.58739477       0.21990007      -1.03475130
F       -0.71808463       0.93794996       1.29116261
C        0.00847214       0.85144216       1.42049026
