5
Properties=species:S:1:pos:R:3 pbc="F F F"
C        0.00000000       0.00000000       0.00000000
H        0.62911803       0.62911803       0.62911803
H       -0.62911803      -0.62911803       0.62911803
C        1.31147671      -0.09214610      -0.22543633
N        0.75820214       1.17719269       1.67747402
