33
Properties=species:S:1:pos:R:3 pbc="F F F"
C        0.00000000       0.00000000       0.00000000
H        0.62911803       0.62911803       0.62911803
H       -0.62911803      -0.62911803       0.62911803
O        0.49202242       1.25055325      -1.38525319
C       -1.28453445       0.78481930       0.10587150
F       -0.63829452      -0.84185785      -0.41947955
C        1.39345026       0.72308999       0.01829210
C        0.47660014       1.12639642      -0.13031583
N       -0.38927796       0.08158648       0.61876684
C       -1.08889794       0.26443356      -0.71643192
C       -0.61530888       0.01806915      -0.28949112
C        0.50254238      -0.06472579      -1.01834822
C        0.15045494       0.19899741       0.16764176
C        0.53872097      -0.65121645       0.28059205
C       -0.65270787      -0.14808893      -0.38526255
C        0.49469998       0.17782399       1.46860218
C        0.49577358       0.15646812       1.46963429
C       -0.59239423      -0.48357302      -0.06492776
C        1.29132140       0.06481268       0.74053091
C        0.21328153       1.02444255       0.85295194
C        0.17575631       1.05442083       0.82450294
C        0.00461480       2.05977750       0.51693112
C       -0.03950438       2.05977750       0.48233002
C        0.08659995       1.14905965       0.70332116
C       -0.79360402       1.26613331      -0.26401323
C       -0.79360402       1.26613331      -0.26401323
C       -0.80714929       1.26613331      -0.24992388
C        1.37317562       2.69945908       1.40030289
C        1.35364199       2.75576162       1.38769436
C        1.27822268       2.75576162       1.39977121
C        0.62376642       3.64989662       0.78907037
C        0.64878392       3.63693762       0.80064011
C        0.70404363       3.60959101       0.81052428
