33
Properties=species:S:1:pos:R:3 pbc="F F F"
C        0.00000000       0.00000000       0.00000000
H        0.62911803       0.62911803       0.62911803
H       -0.62911803      -0.62911803       0.62911803
O        0.00435102      -0.80852538       1.49781203
C       -0.24999675       0.28077430       1.23091817
F       -0.23215967      -2.44868493       1.05302358
H       -1.42150426       0.19727355       0.12742102
N       -0.39506263      -0.24203539       1.07869661
C       -0.71155137      -0.10841066      -0.41537589
C       -0.62071794       0.41772681       0.74250287
C       -1.02136052      -1.73263121       0.13789165
C       -0.93914700      -1.74340439       0.10457355
N       -2.13878536      -1.52778637       0.58465207
N       -2.13511968      -1.50533080       0.58318508
N       -2.12670279      -1.46064270       0.57981670
C       -2.43337369      -2.93927765       0.70864141
C       -2.32254100      -2.63525534       0.68634903
C       -1.86601150       0.27866209       0.43811136
C       -1.83298182       0.14944410       0.42030531
C       -1.70308483       0.40851557       0.40588918
C       -2.61173820      -3.10815668       0.54940730
C       -1.86298203      -0.27153111       0.45442802
C       -1.21361828       0.13885531       0.14404500
C       -1.04239905      -1.55796397       0.06618375
C        0.31864902       0.68803877       0.13403520
C        0.31585926       0.69395089       0.10754099
C        0.29763421       0.70514274       0.08418763
C        0.89091516       0.09178549       1.97211242
C        0.89091516       0.09178549       1.97211242
C        0.86737126       0.09178549       1.97648835
C        0.86737126       0.09178549       1.97648835
C        1.19383109       0.29339266       1.09787738
C       -0.69296539       0.52532566       0.10981500
