30
Properties=species:S:1:pos:R:3 pbc="F F F"
C        0.00000000       0.00000000       0.00000000
H        0.62911803       0.62911803       0.62911803
H       -0.62911803      -0.62911803       0.62911803
C        1.42520738      -0.90298325       0.73776650
F       -0.03748095      -0.23763603       0.16092235
C        0.73349082      -0.31183165       1.61937976
C       -0.19807407       0.67229337      -0.35912609
C        0.22885707       1.20693862      -0.77033865
N       -0.17354915      -0.73211414       0.47538334
N       -0.16362219      -0.90661287       0.65435463
N       -0.14062151      -0.90661287       0.65968007
C       -0.09148310       0.44129866      -0.56445569
C       -0.51714557      -2.34686470       1.10512483
F        0.70709091      -2.01520014       1.72254014
N        0.12744944      -0.91894734       1.03508008
C        0.82547796       0.11397600       0.77434701
C        0.25218445      -1.72489238       1.94070292
C        0.27006799      -1.74808800       1.91989875
C        0.41652241      -1.23747134       1.44833326
N       -0.22067143       0.96696919      -0.65755123
C        0.19813855      -0.61466575       0.48890397
C       -0.82693857      -0.58099115      -0.29351643
C       -0.78476059      -0.62589175      -0.34648916
C        0.97617918      -1.37460113       1.72972953
C        0.89670050      -1.42511201       1.74496353
C        0.76620245      -1.49901867       1.76080048
C        2.44070292      -0.35189986       1.43758488
C        2.41775322      -0.32606399       1.41583395
C        0.14767545      -1.75098932       1.72610438
C        0.17678404      -1.80771148       1.76823425
