33
Properties=species:S:1:pos:R:3 pbc="F F F"
C        0.00000000       0.00000000       0.00000000
H        0.62911803       0.62911803       0.62911803
H       -0.62911803      -0.62911803       0.62911803
N       -2.13760304       0.19529665       0.13020989
C        1.00299239       1.28245020      -0.45323825
C       -1.47258902      -1.00998783       1.49882674
C        0.75944561       1.54408407       1.52472234
F       -1.59173942      -2.83938622       0.96291584
O        1.16984713       0.71765536       0.21404439
F        1.13981891       0.11289632       1.07093203
C       -0.31657922       1.38273704       0.24102816
C        0.37305230       0.16639942       0.11066896
C        0.69650763       0.34781101       0.22361669
C        1.54564810       0.86354971       0.56343067
C        1.55972600       0.84755373       0.55165708
C        2.51507235       1.11697531       1.41961837
C        2.50969315       1.14835322       1.41479754
C        0.23505998       1.38385320       0.14438337
C        0.22240341       1.35082626       0.05930577
C        1.50928569      -0.19582134      -0.69107449
C        1.54437387      -0.26085329      -0.60519254
C        1.60488617      -0.32114440      -0.49344033
C        0.84038419       0.62558573      -1.75006008
C        2.13145971      -0.84936029       0.77360654
C        0.75316268       0.60206074      -1.71039021
C        2.20855975       1.07239759      -0.17647719
C        2.18896389       1.08595383      -0.18912581
C        2.14226794       1.11183870      -0.20427197
C        2.02883697       1.12415922      -0.10565913
C        0.77377379      -0.43299264       0.03506437
C        0.87954962      -0.46641344       0.05092724
C        0.93500984      -0.47728449       0.04121734
C        1.13280869       1.09873557       0.40794817
