33
Properties=species:S:1:pos:R:3 pbc="F F F"
C        0.00000000       0.00000000       0.00000000
H        0.62911803       0.62911803       0.62911803
H       -0.62911803      -0.62911803       0.62911803
C        0.06099498       0.44023687      -0.10848606
C        1.45618808      -0.07816070       1.94813609
C       -0.08343346      -0.87665302       0.15120566
C       -0.25075272      -1.39838314       0.38869146
C       -0.24516073      -1.37684679       0.46542299
C       -0.13546388      -0.94264245       2.03280401
F       -0.25342092      -1.48409283      -0.47846776
F       -0.26975793      -1.53321099      -0.47129732
F       -0.28602242      -1.54949570      -0.46786278
F       -0.32166654      -1.61194372      -0.32690030
C        0.12729356      -0.85657376      -1.68236756
C        0.23228604       0.47734934      -0.66772777
C        0.26565033       0.45008606      -0.66811115
C        0.26553738      -2.07102919      -1.30862021
C        0.31127793      -2.10529065      -1.25361514
C       -0.96594006      -2.43386865       0.32635206
C       -0.88836104      -2.33844137       0.47793013
C       -1.25329566      -3.95681024       0.35029632
C       -1.25406802      -3.95681024       0.31499997
F       -0.13174784      -1.68218470      -1.54338765
C        0.76970333      -1.06463969      -1.62783146
F       -0.14980337      -1.64476132      -1.55156994
C       -0.13423654      -0.81300992      -1.71278596
F       -0.57175541      -3.02764487       0.01000679
F       -0.95648944      -3.28320503      -0.21128768
H       -1.23297799      -1.87877631      -0.88045287
F       -0.98639905      -3.25593996      -0.12378937
C       -0.69246888      -2.11771488       0.47515392
C       -0.55608600      -1.89512277       0.31300855
H       -0.72134298      -2.05089903       1.26276040
