5
Properties=species:S:1:pos:R:3 pbc="F F F"
H        0.00220000      -0.00600000       0.00200000
F       -0.29606763      -1.29983461       1.29022527
C       -0.95256346       0.81436908       0.79919440
H        0.78683186       0.53907758      -0.25750491
C       -0.73963988       0.58992064       1.51812947
