6
Properties=species:S:1:pos:R:3 pbc="F F F"
H        0.00220000      -0.00600000       0.00200000
N       -0.05328820      -0.77706665      -0.90269685
C       -1.13383257      -0.07467979      -0.28303969
N        1.32566881      -0.35863805      -1.52582824
F        0.29923230      -0.60613585       0.86206275
F       -2.49105215       0.22534981      -0.28897816
