31
Properties=species:S:1:pos:R:3 pbc="F F F"
H        0.00220000      -0.00600000       0.00200000
C       -1.43238616       0.84594208      -0.64626962
C        0.73585939       1.34798169      -0.74135351
C       -0.86667317      -0.33381355       0.80853349
C       -1.23907161       0.16808373       2.71890354
F       -1.52642822      -1.56951022       2.09034204
N       -1.29586327      -2.68181705       2.26954222
F       -0.74704301       0.17791972       0.17202464
F        0.95630795       0.01932121      -0.17102182
N       -2.99731779      -1.11914408       1.68815935
F        0.96177858       0.01932121      -0.13752528
C       -0.77669209       1.22671294       0.21268326
C        0.77913815       2.06888580      -0.12416327
F        0.07201179       0.84109348      -0.00566710
F        0.08692207       0.83974355      -0.00431354
C       -0.03421515       1.91319394      -1.57826400
C       -0.02743781       1.93290162      -1.57089829
C       -0.43230110       0.64166677      -1.96699989
C       -0.45358419       0.59510005      -1.93309188
C        0.53829002       3.65425920      -0.96676642
N        0.25073791       2.72816706      -1.28406930
C       -0.45544472       0.65171981      -1.97522664
C       -0.50086331      -0.49601930      -0.54472494
C        1.57005227       1.75607741      -0.65478969
C        1.58290005       1.72405422      -0.68450618
C        1.58584046       1.75607741      -0.68288773
C        0.62995857      -1.37373590       1.04320800
C        0.64808464      -1.37373590       1.03206205
C        0.66601282      -1.37373590       1.02060068
C       -0.13253903      -1.33415234       1.49806583
C       -0.12473226      -1.34998095       1.51194692
