31
Properties=species:S:1:pos:R:3 pbc="F F F"
H        0.00220000      -0.00600000       0.00200000
O       -0.88606286      -0.86597532       1.09467041
O       -2.35409927      -0.90591496       0.66551799
N       -2.76795220      -0.21092993       1.59213591
C       -0.98091161       0.43361229       1.44762087
F       -3.06411195      -0.55932641       0.45029175
H       -1.02428985      -0.70492923       1.87637198
C       -2.69121933      -0.56682169      -0.16044784
C       -2.49243116       0.87423724       2.88465166
C       -1.41454935      -0.75011134       0.76436424
C       -2.67796183      -0.56181747       2.26410770
C       -0.85182917       0.06231683       1.68223131
F       -0.26997173      -0.28217423       1.04875898
C       -0.61249089       0.44834805       1.62562943
N       -1.24719214       0.55971807       0.30286664
N        0.26771152      -1.70970178       2.19817519
N        0.31882876      -1.68740070       2.20060468
N        0.37057048      -1.66467392       2.20049524
H       -1.57650280      -2.28419662       2.09267902
C       -1.21911359      -2.38640714       2.24772382
C        1.99101877      -0.99656618       2.25183725
C       -1.51909280      -2.44693708       2.12819147
C       -1.53202319      -2.41480994       2.12768197
C       -1.62956166      -1.02771997       1.55634999
C       -1.63752747      -1.02771997       1.54326737
C       -1.09313154      -2.33498740       1.76996517
C       -1.10799396      -2.30951595       1.81843472
O       -0.58369589      -3.02357388       1.73280525
O       -2.08335567      -1.98377943       2.33327889
N       -1.89642835      -1.06928253       1.57289410
O       -0.23051345      -2.84109449       1.59493577
